*SPEF "IEEE 1481-1998"
*DESIGN "myiir"
*DATE "Sun Nov 21 15:37:10 2021"
*VENDOR "Cadence Design Systems, Inc."
*PROGRAM "Innovus"
*VERSION "17.11-s080_1"
*DESIGN_FLOW "COUPLING C" "PIN_CAP NONE" "NAME_SCOPE LOCAL"
*DIVIDER /
*DELIMITER :
*BUS_DELIMITER []
*T_UNIT 1 NS
*C_UNIT 1 PF
*R_UNIT 1 OHM
*L_UNIT 1 HENRY

// MMMC spef file for corner 'my_rc'

*NAME_MAP

*1 CLK
*2 RST_n
*3 VIN
*4 DIN[12]
*5 DIN[11]
*6 DIN[10]
*7 DIN[9]
*8 DIN[8]
*9 DIN[7]
*10 DIN[6]
*11 DIN[5]
*12 DIN[4]
*13 DIN[3]
*14 DIN[2]
*15 DIN[1]
*16 DIN[0]
*17 B0[12]
*18 B0[11]
*19 B0[10]
*20 B0[9]
*21 B0[8]
*22 B0[7]
*23 B0[6]
*24 B0[5]
*25 B0[4]
*26 B0[3]
*27 B0[2]
*28 B0[1]
*29 B0[0]
*30 B1[12]
*31 B1[11]
*32 B1[10]
*33 B1[9]
*34 B1[8]
*35 B1[7]
*36 B1[6]
*37 B1[5]
*38 B1[4]
*39 B1[3]
*40 B1[2]
*41 B1[1]
*42 B1[0]
*43 A1[12]
*44 A1[11]
*45 A1[10]
*46 A1[9]
*47 A1[8]
*48 A1[7]
*49 A1[6]
*50 A1[5]
*51 A1[4]
*52 A1[3]
*53 A1[2]
*54 A1[1]
*55 A1[0]
*56 DOUT[12]
*57 DOUT[11]
*58 DOUT[10]
*59 DOUT[9]
*60 DOUT[8]
*61 DOUT[7]
*62 DOUT[6]
*63 VOUT
*64 FE_OFN13_M_A1_mult_14_n478
*65 FE_OFN12_M_A1_mult_14_n479
*66 FE_OFN11_M_A1_mult_14_n480
*67 FE_OFN10_M_A1_mult_14_n481
*68 FE_OFN9_currInt_10
*69 FE_OFN8_M_B0_mult_14_n479
*70 FE_OFN7_M_B0_mult_14_n478
*71 FE_OFN6_M_B0_mult_14_n480
*72 FE_OFN5_M_B0_mult_14_n481
*73 FE_OFN4_currInt_1
*74 FE_OFN3_currInt_5
*75 FE_OFN2_currInt_3
*76 FE_OFN1_currInt_7
*77 FE_OFN0_currInt_9
*78 FE_DBTN9_B0_12
*79 FE_DBTN8_M_B0_mult_14_n92
*80 FE_DBTN7_currInt_0
*81 FE_DBTN6_currInt_3
*82 FE_DBTN5_currInt_5
*83 FE_DBTN4_currInt_7
*84 FE_DBTN3_currInt_9
*85 FE_DBTN2_currInt_10
*86 FE_DBTN1_mult_b1_21
*87 FE_DBTN0_A_ff_add_15_n50
*88 N10
*89 n29
*90 n30
*91 n31
*92 n32
*93 n33
*94 n34
*95 n35
*96 n39
*97 n41
*98 n42
*99 n43
*100 n44
*101 n45
*102 n46
*103 n47
*104 n49
*105 n50
*106 n51
*107 n52
*108 n53
*109 n54
*110 n55
*111 n56
*112 n57
*113 n58
*114 n59
*115 n60
*116 n61
*117 n62
*118 n63
*119 n64
*120 n65
*121 n66
*122 n67
*123 n68
*124 n69
*125 n70
*126 n71
*127 n72
*128 n73
*129 n74
*130 n75
*131 n76
*132 n77
*133 n78
*134 n79
*135 M_B0_P_0_
*136 M_B0_P_1_
*137 M_B0_P_2_
*138 M_B0_P_3_
*139 M_B0_P_4_
*140 M_B0_P_5_
*141 M_B0_P_6_
*142 M_B0_P_7_
*143 M_B0_P_8_
*144 M_B0_P_9_
*145 M_B0_P_10_
*146 M_B0_P_11_
*147 M_B0_mult_14_n672
*148 M_B0_mult_14_n669
*149 M_B0_mult_14_n668
*150 M_B0_mult_14_n667
*151 M_B0_mult_14_n666
*152 M_B0_mult_14_n665
*153 M_B0_mult_14_n661
*154 M_B0_mult_14_n660
*155 M_B0_mult_14_n659
*156 M_B0_mult_14_n658
*157 M_B0_mult_14_n657
*158 M_B0_mult_14_n656
*159 M_B0_mult_14_n655
*160 M_B0_mult_14_n654
*161 M_B0_mult_14_n653
*162 M_B0_mult_14_n652
*163 M_B0_mult_14_n649
*164 M_B0_mult_14_n648
*165 M_B0_mult_14_n647
*166 M_B0_mult_14_n646
*167 M_B0_mult_14_n645
*168 M_B0_mult_14_n644
*169 M_B0_mult_14_n642
*170 M_B0_mult_14_n641
*171 M_B0_mult_14_n640
*172 M_B0_mult_14_n639
*173 M_B0_mult_14_n638
*174 M_B0_mult_14_n637
*175 M_B0_mult_14_n636
*176 M_B0_mult_14_n635
*177 M_B0_mult_14_n634
*178 M_B0_mult_14_n633
*179 M_B0_mult_14_n631
*180 M_B0_mult_14_n630
*181 M_B0_mult_14_n629
*182 M_B0_mult_14_n628
*183 M_B0_mult_14_n627
*184 M_B0_mult_14_n626
*185 M_B0_mult_14_n623
*186 M_B0_mult_14_n622
*187 M_B0_mult_14_n621
*188 M_B0_mult_14_n620
*189 M_B0_mult_14_n619
*190 M_B0_mult_14_n618
*191 M_B0_mult_14_n617
*192 M_B0_mult_14_n616
*193 M_B0_mult_14_n615
*194 M_B0_mult_14_n614
*195 M_B0_mult_14_n613
*196 M_B0_mult_14_n612
*197 M_B0_mult_14_n611
*198 M_B0_mult_14_n610
*199 M_B0_mult_14_n609
*200 M_B0_mult_14_n607
*201 M_B0_mult_14_n606
*202 M_B0_mult_14_n605
*203 M_B0_mult_14_n604
*204 M_B0_mult_14_n603
*205 M_B0_mult_14_n602
*206 M_B0_mult_14_n601
*207 M_B0_mult_14_n600
*208 M_B0_mult_14_n599
*209 M_B0_mult_14_n598
*210 M_B0_mult_14_n597
*211 M_B0_mult_14_n594
*212 M_B0_mult_14_n593
*213 M_B0_mult_14_n592
*214 M_B0_mult_14_n591
*215 M_B0_mult_14_n590
*216 M_B0_mult_14_n588
*217 M_B0_mult_14_n587
*218 M_B0_mult_14_n586
*219 M_B0_mult_14_n585
*220 M_B0_mult_14_n584
*221 M_B0_mult_14_n582
*222 M_B0_mult_14_n581
*223 M_B0_mult_14_n580
*224 M_B0_mult_14_n579
*225 M_B0_mult_14_n577
*226 M_B0_mult_14_n575
*227 M_B0_mult_14_n571
*228 M_B0_mult_14_n568
*229 M_B0_mult_14_n567
*230 M_B0_mult_14_n560
*231 M_B0_mult_14_n550
*232 M_B0_mult_14_n546
*233 M_B0_mult_14_n545
*234 M_B0_mult_14_n540
*235 M_B0_mult_14_n539
*236 M_B0_mult_14_n538
*237 M_B0_mult_14_n537
*238 M_B0_mult_14_n536
*239 M_B0_mult_14_n535
*240 M_B0_mult_14_n534
*241 M_B0_mult_14_n533
*242 M_B0_mult_14_n532
*243 M_B0_mult_14_n482
*244 M_B0_mult_14_n481
*245 M_B0_mult_14_n480
*246 M_B0_mult_14_n479
*247 M_B0_mult_14_n478
*248 M_B0_mult_14_n477
*249 M_B0_mult_14_n476
*250 M_B0_mult_14_n475
*251 M_B0_mult_14_n474
*252 M_B0_mult_14_n473
*253 M_B0_mult_14_n472
*254 M_B0_mult_14_n463
*255 M_B0_mult_14_n461
*256 M_B0_mult_14_n446
*257 M_B0_mult_14_n445
*258 M_B0_mult_14_n444
*259 M_B0_mult_14_n443
*260 M_B0_mult_14_n442
*261 M_B0_mult_14_n429
*262 M_B0_mult_14_n428
*263 M_B0_mult_14_n427
*264 M_B0_mult_14_n426
*265 M_B0_mult_14_n425
*266 M_B0_mult_14_n424
*267 M_B0_mult_14_n423
*268 M_B0_mult_14_n422
*269 M_B0_mult_14_n421
*270 M_B0_mult_14_n420
*271 M_B0_mult_14_n419
*272 M_B0_mult_14_n418
*273 M_B0_mult_14_n417
*274 M_B0_mult_14_n416
*275 M_B0_mult_14_n415
*276 M_B0_mult_14_n414
*277 M_B0_mult_14_n413
*278 M_B0_mult_14_n412
*279 M_B0_mult_14_n411
*280 M_B0_mult_14_n410
*281 M_B0_mult_14_n409
*282 M_B0_mult_14_n408
*283 M_B0_mult_14_n407
*284 M_B0_mult_14_n406
*285 M_B0_mult_14_n405
*286 M_B0_mult_14_n404
*287 M_B0_mult_14_n403
*288 M_B0_mult_14_n402
*289 M_B0_mult_14_n401
*290 M_B0_mult_14_n400
*291 M_B0_mult_14_n399
*292 M_B0_mult_14_n398
*293 M_B0_mult_14_n397
*294 M_B0_mult_14_n396
*295 M_B0_mult_14_n395
*296 M_B0_mult_14_n394
*297 M_B0_mult_14_n393
*298 M_B0_mult_14_n392
*299 M_B0_mult_14_n391
*300 M_B0_mult_14_n390
*301 M_B0_mult_14_n389
*302 M_B0_mult_14_n388
*303 M_B0_mult_14_n387
*304 M_B0_mult_14_n386
*305 M_B0_mult_14_n385
*306 M_B0_mult_14_n384
*307 M_B0_mult_14_n383
*308 M_B0_mult_14_n382
*309 M_B0_mult_14_n381
*310 M_B0_mult_14_n380
*311 M_B0_mult_14_n379
*312 M_B0_mult_14_n378
*313 M_B0_mult_14_n377
*314 M_B0_mult_14_n376
*315 M_B0_mult_14_n375
*316 M_B0_mult_14_n374
*317 M_B0_mult_14_n373
*318 M_B0_mult_14_n372
*319 M_B0_mult_14_n371
*320 M_B0_mult_14_n370
*321 M_B0_mult_14_n369
*322 M_B0_mult_14_n367
*323 M_B0_mult_14_n366
*324 M_B0_mult_14_n365
*325 M_B0_mult_14_n364
*326 M_B0_mult_14_n363
*327 M_B0_mult_14_n362
*328 M_B0_mult_14_n361
*329 M_B0_mult_14_n360
*330 M_B0_mult_14_n359
*331 M_B0_mult_14_n358
*332 M_B0_mult_14_n357
*333 M_B0_mult_14_n356
*334 M_B0_mult_14_n355
*335 M_B0_mult_14_n354
*336 M_B0_mult_14_n353
*337 M_B0_mult_14_n352
*338 M_B0_mult_14_n351
*339 M_B0_mult_14_n350
*340 M_B0_mult_14_n349
*341 M_B0_mult_14_n348
*342 M_B0_mult_14_n347
*343 M_B0_mult_14_n346
*344 M_B0_mult_14_n345
*345 M_B0_mult_14_n344
*346 M_B0_mult_14_n343
*347 M_B0_mult_14_n342
*348 M_B0_mult_14_n341
*349 M_B0_mult_14_n340
*350 M_B0_mult_14_n339
*351 M_B0_mult_14_n338
*352 M_B0_mult_14_n337
*353 M_B0_mult_14_n336
*354 M_B0_mult_14_n335
*355 M_B0_mult_14_n334
*356 M_B0_mult_14_n333
*357 M_B0_mult_14_n332
*358 M_B0_mult_14_n331
*359 M_B0_mult_14_n330
*360 M_B0_mult_14_n329
*361 M_B0_mult_14_n328
*362 M_B0_mult_14_n327
*363 M_B0_mult_14_n326
*364 M_B0_mult_14_n325
*365 M_B0_mult_14_n324
*366 M_B0_mult_14_n323
*367 M_B0_mult_14_n322
*368 M_B0_mult_14_n321
*369 M_B0_mult_14_n320
*370 M_B0_mult_14_n319
*371 M_B0_mult_14_n318
*372 M_B0_mult_14_n317
*373 M_B0_mult_14_n316
*374 M_B0_mult_14_n315
*375 M_B0_mult_14_n314
*376 M_B0_mult_14_n313
*377 M_B0_mult_14_n312
*378 M_B0_mult_14_n311
*379 M_B0_mult_14_n310
*380 M_B0_mult_14_n309
*381 M_B0_mult_14_n308
*382 M_B0_mult_14_n307
*383 M_B0_mult_14_n306
*384 M_B0_mult_14_n305
*385 M_B0_mult_14_n304
*386 M_B0_mult_14_n303
*387 M_B0_mult_14_n302
*388 M_B0_mult_14_n301
*389 M_B0_mult_14_n300
*390 M_B0_mult_14_n299
*391 M_B0_mult_14_n298
*392 M_B0_mult_14_n297
*393 M_B0_mult_14_n296
*394 M_B0_mult_14_n295
*395 M_B0_mult_14_n294
*396 M_B0_mult_14_n293
*397 M_B0_mult_14_n291
*398 M_B0_mult_14_n290
*399 M_B0_mult_14_n289
*400 M_B0_mult_14_n288
*401 M_B0_mult_14_n287
*402 M_B0_mult_14_n286
*403 M_B0_mult_14_n285
*404 M_B0_mult_14_n283
*405 M_B0_mult_14_n281
*406 M_B0_mult_14_n280
*407 M_B0_mult_14_n279
*408 M_B0_mult_14_n278
*409 M_B0_mult_14_n277
*410 M_B0_mult_14_n275
*411 M_B0_mult_14_n274
*412 M_B0_mult_14_n272
*413 M_B0_mult_14_n271
*414 M_B0_mult_14_n267
*415 M_B0_mult_14_n266
*416 M_B0_mult_14_n265
*417 M_B0_mult_14_n264
*418 M_B0_mult_14_n263
*419 M_B0_mult_14_n262
*420 M_B0_mult_14_n261
*421 M_B0_mult_14_n260
*422 M_B0_mult_14_n259
*423 M_B0_mult_14_n258
*424 M_B0_mult_14_n257
*425 M_B0_mult_14_n256
*426 M_B0_mult_14_n255
*427 M_B0_mult_14_n254
*428 M_B0_mult_14_n253
*429 M_B0_mult_14_n252
*430 M_B0_mult_14_n251
*431 M_B0_mult_14_n250
*432 M_B0_mult_14_n249
*433 M_B0_mult_14_n248
*434 M_B0_mult_14_n247
*435 M_B0_mult_14_n246
*436 M_B0_mult_14_n245
*437 M_B0_mult_14_n244
*438 M_B0_mult_14_n243
*439 M_B0_mult_14_n242
*440 M_B0_mult_14_n241
*441 M_B0_mult_14_n240
*442 M_B0_mult_14_n239
*443 M_B0_mult_14_n238
*444 M_B0_mult_14_n237
*445 M_B0_mult_14_n236
*446 M_B0_mult_14_n235
*447 M_B0_mult_14_n234
*448 M_B0_mult_14_n233
*449 M_B0_mult_14_n232
*450 M_B0_mult_14_n231
*451 M_B0_mult_14_n230
*452 M_B0_mult_14_n229
*453 M_B0_mult_14_n228
*454 M_B0_mult_14_n227
*455 M_B0_mult_14_n226
*456 M_B0_mult_14_n225
*457 M_B0_mult_14_n224
*458 M_B0_mult_14_n223
*459 M_B0_mult_14_n222
*460 M_B0_mult_14_n221
*461 M_B0_mult_14_n220
*462 M_B0_mult_14_n219
*463 M_B0_mult_14_n218
*464 M_B0_mult_14_n217
*465 M_B0_mult_14_n216
*466 M_B0_mult_14_n215
*467 M_B0_mult_14_n214
*468 M_B0_mult_14_n213
*469 M_B0_mult_14_n212
*470 M_B0_mult_14_n211
*471 M_B0_mult_14_n210
*472 M_B0_mult_14_n209
*473 M_B0_mult_14_n208
*474 M_B0_mult_14_n207
*475 M_B0_mult_14_n206
*476 M_B0_mult_14_n205
*477 M_B0_mult_14_n204
*478 M_B0_mult_14_n203
*479 M_B0_mult_14_n202
*480 M_B0_mult_14_n201
*481 M_B0_mult_14_n200
*482 M_B0_mult_14_n199
*483 M_B0_mult_14_n198
*484 M_B0_mult_14_n197
*485 M_B0_mult_14_n196
*486 M_B0_mult_14_n195
*487 M_B0_mult_14_n194
*488 M_B0_mult_14_n193
*489 M_B0_mult_14_n192
*490 M_B0_mult_14_n191
*491 M_B0_mult_14_n190
*492 M_B0_mult_14_n189
*493 M_B0_mult_14_n188
*494 M_B0_mult_14_n187
*495 M_B0_mult_14_n186
*496 M_B0_mult_14_n185
*497 M_B0_mult_14_n184
*498 M_B0_mult_14_n183
*499 M_B0_mult_14_n182
*500 M_B0_mult_14_n181
*501 M_B0_mult_14_n180
*502 M_B0_mult_14_n179
*503 M_B0_mult_14_n178
*504 M_B0_mult_14_n177
*505 M_B0_mult_14_n176
*506 M_B0_mult_14_n175
*507 M_B0_mult_14_n174
*508 M_B0_mult_14_n173
*509 M_B0_mult_14_n172
*510 M_B0_mult_14_n171
*511 M_B0_mult_14_n170
*512 M_B0_mult_14_n168
*513 M_B0_mult_14_n165
*514 M_B0_mult_14_n161
*515 M_B0_mult_14_n160
*516 M_B0_mult_14_n159
*517 M_B0_mult_14_n158
*518 M_B0_mult_14_n157
*519 M_B0_mult_14_n156
*520 M_B0_mult_14_n149
*521 M_B0_mult_14_n146
*522 M_B0_mult_14_n144
*523 M_B0_mult_14_n143
*524 M_B0_mult_14_n141
*525 M_B0_mult_14_n139
*526 M_B0_mult_14_n138
*527 M_B0_mult_14_n137
*528 M_B0_mult_14_n136
*529 M_B0_mult_14_n135
*530 M_B0_mult_14_n133
*531 M_B0_mult_14_n131
*532 M_B0_mult_14_n130
*533 M_B0_mult_14_n129
*534 M_B0_mult_14_n127
*535 M_B0_mult_14_n125
*536 M_B0_mult_14_n124
*537 M_B0_mult_14_n123
*538 M_B0_mult_14_n122
*539 M_B0_mult_14_n121
*540 M_B0_mult_14_n120
*541 M_B0_mult_14_n119
*542 M_B0_mult_14_n118
*543 M_B0_mult_14_n117
*544 M_B0_mult_14_n116
*545 M_B0_mult_14_n115
*546 M_B0_mult_14_n114
*547 M_B0_mult_14_n113
*548 M_B0_mult_14_n112
*549 M_B0_mult_14_n111
*550 M_B0_mult_14_n110
*551 M_B0_mult_14_n109
*552 M_B0_mult_14_n108
*553 M_B0_mult_14_n107
*554 M_B0_mult_14_n106
*555 M_B0_mult_14_n105
*556 M_B0_mult_14_n104
*557 M_B0_mult_14_n103
*558 M_B0_mult_14_n102
*559 M_B0_mult_14_n101
*560 M_B0_mult_14_n100
*561 M_B0_mult_14_n99
*562 M_B0_mult_14_n98
*563 M_B0_mult_14_n97
*564 M_B0_mult_14_n95
*565 M_B0_mult_14_n94
*566 M_B0_mult_14_n93
*567 M_B0_mult_14_n92
*568 M_B0_mult_14_n87
*569 M_B0_mult_14_n86
*570 M_B0_mult_14_n85
*571 M_B0_mult_14_n79
*572 M_B0_mult_14_n78
*573 M_B0_mult_14_n77
*574 M_B0_mult_14_n76
*575 M_B0_mult_14_n70
*576 M_B0_mult_14_n69
*577 M_B0_mult_14_n68
*578 M_B0_mult_14_n67
*579 M_B0_mult_14_n66
*580 M_B0_mult_14_n65
*581 M_B0_mult_14_n63
*582 M_B0_mult_14_n61
*583 M_B0_mult_14_n60
*584 M_B0_mult_14_n59
*585 M_B0_mult_14_n58
*586 M_B0_mult_14_n57
*587 M_B0_mult_14_n56
*588 M_B0_mult_14_n55
*589 M_B0_mult_14_n54
*590 M_B0_mult_14_n52
*591 M_B0_mult_14_n50
*592 M_B0_mult_14_n49
*593 M_B0_mult_14_n47
*594 M_B0_mult_14_n45
*595 M_B0_mult_14_n44
*596 M_B0_mult_14_n43
*597 M_B0_mult_14_n42
*598 M_B0_mult_14_n41
*599 M_B0_mult_14_n40
*600 M_B0_mult_14_n39
*601 M_B0_mult_14_n38
*602 M_B0_mult_14_n37
*603 M_B0_mult_14_n36
*604 M_B0_mult_14_n35
*605 M_B0_mult_14_n33
*606 M_B0_mult_14_n31
*607 M_B0_mult_14_n29
*608 M_B0_mult_14_n27
*609 M_B0_mult_14_n26
*610 M_B0_mult_14_n23
*611 M_B0_mult_14_n22
*612 M_B0_mult_14_n21
*613 M_B0_mult_14_n20
*614 M_B0_mult_14_n19
*615 M_B0_mult_14_n18
*616 M_B0_mult_14_n17
*617 M_B0_mult_14_n16
*618 M_B0_mult_14_n15
*619 M_B0_mult_14_n14
*620 M_B0_mult_14_n13
*621 M_B0_mult_14_n8
*622 M_B0_mult_14_n6
*623 M_B0_mult_14_n5
*624 M_B0_mult_14_n4
*625 M_A1_P_0_
*626 M_A1_P_1_
*627 M_A1_P_2_
*628 M_A1_P_3_
*629 M_A1_P_4_
*630 M_A1_P_5_
*631 M_A1_P_6_
*632 M_A1_P_7_
*633 M_A1_P_8_
*634 M_A1_P_9_
*635 M_A1_P_10_
*636 M_A1_P_11_
*637 M_A1_mult_14_n619
*638 M_A1_mult_14_n618
*639 M_A1_mult_14_n617
*640 M_A1_mult_14_n616
*641 M_A1_mult_14_n615
*642 M_A1_mult_14_n614
*643 M_A1_mult_14_n613
*644 M_A1_mult_14_n612
*645 M_A1_mult_14_n611
*646 M_A1_mult_14_n610
*647 M_A1_mult_14_n607
*648 M_A1_mult_14_n605
*649 M_A1_mult_14_n604
*650 M_A1_mult_14_n603
*651 M_A1_mult_14_n602
*652 M_A1_mult_14_n601
*653 M_A1_mult_14_n600
*654 M_A1_mult_14_n599
*655 M_A1_mult_14_n598
*656 M_A1_mult_14_n597
*657 M_A1_mult_14_n596
*658 M_A1_mult_14_n595
*659 M_A1_mult_14_n594
*660 M_A1_mult_14_n593
*661 M_A1_mult_14_n592
*662 M_A1_mult_14_n591
*663 M_A1_mult_14_n590
*664 M_A1_mult_14_n589
*665 M_A1_mult_14_n588
*666 M_A1_mult_14_n587
*667 M_A1_mult_14_n586
*668 M_A1_mult_14_n585
*669 M_A1_mult_14_n584
*670 M_A1_mult_14_n583
*671 M_A1_mult_14_n582
*672 M_A1_mult_14_n581
*673 M_A1_mult_14_n580
*674 M_A1_mult_14_n579
*675 M_A1_mult_14_n578
*676 M_A1_mult_14_n577
*677 M_A1_mult_14_n576
*678 M_A1_mult_14_n575
*679 M_A1_mult_14_n574
*680 M_A1_mult_14_n573
*681 M_A1_mult_14_n572
*682 M_A1_mult_14_n571
*683 M_A1_mult_14_n569
*684 M_A1_mult_14_n567
*685 M_A1_mult_14_n565
*686 M_A1_mult_14_n562
*687 M_A1_mult_14_n560
*688 M_A1_mult_14_n559
*689 M_A1_mult_14_n555
*690 M_A1_mult_14_n547
*691 M_A1_mult_14_n546
*692 M_A1_mult_14_n542
*693 M_A1_mult_14_n541
*694 M_A1_mult_14_n539
*695 M_A1_mult_14_n538
*696 M_A1_mult_14_n537
*697 M_A1_mult_14_n536
*698 M_A1_mult_14_n535
*699 M_A1_mult_14_n534
*700 M_A1_mult_14_n533
*701 M_A1_mult_14_n532
*702 M_A1_mult_14_n531
*703 M_A1_mult_14_n481
*704 M_A1_mult_14_n480
*705 M_A1_mult_14_n479
*706 M_A1_mult_14_n478
*707 M_A1_mult_14_n477
*708 M_A1_mult_14_n476
*709 M_A1_mult_14_n475
*710 M_A1_mult_14_n474
*711 M_A1_mult_14_n473
*712 M_A1_mult_14_n472
*713 M_A1_mult_14_n464
*714 M_A1_mult_14_n446
*715 M_A1_mult_14_n445
*716 M_A1_mult_14_n444
*717 M_A1_mult_14_n443
*718 M_A1_mult_14_n442
*719 M_A1_mult_14_n429
*720 M_A1_mult_14_n428
*721 M_A1_mult_14_n427
*722 M_A1_mult_14_n426
*723 M_A1_mult_14_n425
*724 M_A1_mult_14_n424
*725 M_A1_mult_14_n423
*726 M_A1_mult_14_n422
*727 M_A1_mult_14_n421
*728 M_A1_mult_14_n420
*729 M_A1_mult_14_n419
*730 M_A1_mult_14_n418
*731 M_A1_mult_14_n417
*732 M_A1_mult_14_n416
*733 M_A1_mult_14_n415
*734 M_A1_mult_14_n414
*735 M_A1_mult_14_n413
*736 M_A1_mult_14_n412
*737 M_A1_mult_14_n411
*738 M_A1_mult_14_n410
*739 M_A1_mult_14_n409
*740 M_A1_mult_14_n408
*741 M_A1_mult_14_n407
*742 M_A1_mult_14_n406
*743 M_A1_mult_14_n405
*744 M_A1_mult_14_n404
*745 M_A1_mult_14_n403
*746 M_A1_mult_14_n402
*747 M_A1_mult_14_n401
*748 M_A1_mult_14_n400
*749 M_A1_mult_14_n399
*750 M_A1_mult_14_n398
*751 M_A1_mult_14_n397
*752 M_A1_mult_14_n396
*753 M_A1_mult_14_n395
*754 M_A1_mult_14_n394
*755 M_A1_mult_14_n393
*756 M_A1_mult_14_n392
*757 M_A1_mult_14_n391
*758 M_A1_mult_14_n390
*759 M_A1_mult_14_n389
*760 M_A1_mult_14_n388
*761 M_A1_mult_14_n387
*762 M_A1_mult_14_n386
*763 M_A1_mult_14_n385
*764 M_A1_mult_14_n384
*765 M_A1_mult_14_n383
*766 M_A1_mult_14_n382
*767 M_A1_mult_14_n381
*768 M_A1_mult_14_n380
*769 M_A1_mult_14_n379
*770 M_A1_mult_14_n378
*771 M_A1_mult_14_n377
*772 M_A1_mult_14_n376
*773 M_A1_mult_14_n375
*774 M_A1_mult_14_n374
*775 M_A1_mult_14_n373
*776 M_A1_mult_14_n372
*777 M_A1_mult_14_n371
*778 M_A1_mult_14_n370
*779 M_A1_mult_14_n369
*780 M_A1_mult_14_n367
*781 M_A1_mult_14_n366
*782 M_A1_mult_14_n365
*783 M_A1_mult_14_n364
*784 M_A1_mult_14_n363
*785 M_A1_mult_14_n362
*786 M_A1_mult_14_n361
*787 M_A1_mult_14_n360
*788 M_A1_mult_14_n359
*789 M_A1_mult_14_n358
*790 M_A1_mult_14_n357
*791 M_A1_mult_14_n356
*792 M_A1_mult_14_n355
*793 M_A1_mult_14_n354
*794 M_A1_mult_14_n353
*795 M_A1_mult_14_n352
*796 M_A1_mult_14_n351
*797 M_A1_mult_14_n350
*798 M_A1_mult_14_n349
*799 M_A1_mult_14_n348
*800 M_A1_mult_14_n346
*801 M_A1_mult_14_n345
*802 M_A1_mult_14_n344
*803 M_A1_mult_14_n343
*804 M_A1_mult_14_n342
*805 M_A1_mult_14_n341
*806 M_A1_mult_14_n340
*807 M_A1_mult_14_n339
*808 M_A1_mult_14_n338
*809 M_A1_mult_14_n337
*810 M_A1_mult_14_n335
*811 M_A1_mult_14_n334
*812 M_A1_mult_14_n333
*813 M_A1_mult_14_n332
*814 M_A1_mult_14_n331
*815 M_A1_mult_14_n330
*816 M_A1_mult_14_n329
*817 M_A1_mult_14_n328
*818 M_A1_mult_14_n327
*819 M_A1_mult_14_n326
*820 M_A1_mult_14_n325
*821 M_A1_mult_14_n324
*822 M_A1_mult_14_n323
*823 M_A1_mult_14_n322
*824 M_A1_mult_14_n321
*825 M_A1_mult_14_n320
*826 M_A1_mult_14_n319
*827 M_A1_mult_14_n318
*828 M_A1_mult_14_n317
*829 M_A1_mult_14_n316
*830 M_A1_mult_14_n315
*831 M_A1_mult_14_n314
*832 M_A1_mult_14_n313
*833 M_A1_mult_14_n312
*834 M_A1_mult_14_n311
*835 M_A1_mult_14_n310
*836 M_A1_mult_14_n309
*837 M_A1_mult_14_n308
*838 M_A1_mult_14_n307
*839 M_A1_mult_14_n306
*840 M_A1_mult_14_n305
*841 M_A1_mult_14_n304
*842 M_A1_mult_14_n303
*843 M_A1_mult_14_n302
*844 M_A1_mult_14_n301
*845 M_A1_mult_14_n300
*846 M_A1_mult_14_n299
*847 M_A1_mult_14_n298
*848 M_A1_mult_14_n297
*849 M_A1_mult_14_n296
*850 M_A1_mult_14_n295
*851 M_A1_mult_14_n294
*852 M_A1_mult_14_n293
*853 M_A1_mult_14_n291
*854 M_A1_mult_14_n290
*855 M_A1_mult_14_n289
*856 M_A1_mult_14_n288
*857 M_A1_mult_14_n287
*858 M_A1_mult_14_n286
*859 M_A1_mult_14_n281
*860 M_A1_mult_14_n278
*861 M_A1_mult_14_n277
*862 M_A1_mult_14_n275
*863 M_A1_mult_14_n274
*864 M_A1_mult_14_n272
*865 M_A1_mult_14_n271
*866 M_A1_mult_14_n267
*867 M_A1_mult_14_n266
*868 M_A1_mult_14_n265
*869 M_A1_mult_14_n264
*870 M_A1_mult_14_n263
*871 M_A1_mult_14_n262
*872 M_A1_mult_14_n261
*873 M_A1_mult_14_n260
*874 M_A1_mult_14_n259
*875 M_A1_mult_14_n258
*876 M_A1_mult_14_n257
*877 M_A1_mult_14_n256
*878 M_A1_mult_14_n255
*879 M_A1_mult_14_n254
*880 M_A1_mult_14_n253
*881 M_A1_mult_14_n252
*882 M_A1_mult_14_n251
*883 M_A1_mult_14_n250
*884 M_A1_mult_14_n249
*885 M_A1_mult_14_n248
*886 M_A1_mult_14_n247
*887 M_A1_mult_14_n246
*888 M_A1_mult_14_n245
*889 M_A1_mult_14_n244
*890 M_A1_mult_14_n243
*891 M_A1_mult_14_n242
*892 M_A1_mult_14_n241
*893 M_A1_mult_14_n240
*894 M_A1_mult_14_n239
*895 M_A1_mult_14_n238
*896 M_A1_mult_14_n237
*897 M_A1_mult_14_n236
*898 M_A1_mult_14_n235
*899 M_A1_mult_14_n234
*900 M_A1_mult_14_n233
*901 M_A1_mult_14_n232
*902 M_A1_mult_14_n231
*903 M_A1_mult_14_n230
*904 M_A1_mult_14_n229
*905 M_A1_mult_14_n228
*906 M_A1_mult_14_n227
*907 M_A1_mult_14_n226
*908 M_A1_mult_14_n225
*909 M_A1_mult_14_n224
*910 M_A1_mult_14_n223
*911 M_A1_mult_14_n222
*912 M_A1_mult_14_n221
*913 M_A1_mult_14_n220
*914 M_A1_mult_14_n219
*915 M_A1_mult_14_n218
*916 M_A1_mult_14_n217
*917 M_A1_mult_14_n216
*918 M_A1_mult_14_n215
*919 M_A1_mult_14_n214
*920 M_A1_mult_14_n213
*921 M_A1_mult_14_n212
*922 M_A1_mult_14_n211
*923 M_A1_mult_14_n210
*924 M_A1_mult_14_n209
*925 M_A1_mult_14_n208
*926 M_A1_mult_14_n207
*927 M_A1_mult_14_n206
*928 M_A1_mult_14_n205
*929 M_A1_mult_14_n204
*930 M_A1_mult_14_n203
*931 M_A1_mult_14_n202
*932 M_A1_mult_14_n201
*933 M_A1_mult_14_n200
*934 M_A1_mult_14_n199
*935 M_A1_mult_14_n198
*936 M_A1_mult_14_n197
*937 M_A1_mult_14_n196
*938 M_A1_mult_14_n195
*939 M_A1_mult_14_n194
*940 M_A1_mult_14_n193
*941 M_A1_mult_14_n192
*942 M_A1_mult_14_n191
*943 M_A1_mult_14_n190
*944 M_A1_mult_14_n189
*945 M_A1_mult_14_n188
*946 M_A1_mult_14_n187
*947 M_A1_mult_14_n186
*948 M_A1_mult_14_n185
*949 M_A1_mult_14_n184
*950 M_A1_mult_14_n183
*951 M_A1_mult_14_n182
*952 M_A1_mult_14_n181
*953 M_A1_mult_14_n180
*954 M_A1_mult_14_n179
*955 M_A1_mult_14_n178
*956 M_A1_mult_14_n177
*957 M_A1_mult_14_n176
*958 M_A1_mult_14_n175
*959 M_A1_mult_14_n174
*960 M_A1_mult_14_n173
*961 M_A1_mult_14_n172
*962 M_A1_mult_14_n171
*963 M_A1_mult_14_n170
*964 M_A1_mult_14_n168
*965 M_A1_mult_14_n165
*966 M_A1_mult_14_n162
*967 M_A1_mult_14_n161
*968 M_A1_mult_14_n160
*969 M_A1_mult_14_n159
*970 M_A1_mult_14_n158
*971 M_A1_mult_14_n157
*972 M_A1_mult_14_n155
*973 M_A1_mult_14_n149
*974 M_A1_mult_14_n146
*975 M_A1_mult_14_n144
*976 M_A1_mult_14_n143
*977 M_A1_mult_14_n141
*978 M_A1_mult_14_n139
*979 M_A1_mult_14_n138
*980 M_A1_mult_14_n137
*981 M_A1_mult_14_n136
*982 M_A1_mult_14_n135
*983 M_A1_mult_14_n133
*984 M_A1_mult_14_n131
*985 M_A1_mult_14_n130
*986 M_A1_mult_14_n129
*987 M_A1_mult_14_n127
*988 M_A1_mult_14_n125
*989 M_A1_mult_14_n124
*990 M_A1_mult_14_n123
*991 M_A1_mult_14_n122
*992 M_A1_mult_14_n121
*993 M_A1_mult_14_n120
*994 M_A1_mult_14_n119
*995 M_A1_mult_14_n118
*996 M_A1_mult_14_n117
*997 M_A1_mult_14_n116
*998 M_A1_mult_14_n115
*999 M_A1_mult_14_n114
*1000 M_A1_mult_14_n113
*1001 M_A1_mult_14_n112
*1002 M_A1_mult_14_n111
*1003 M_A1_mult_14_n110
*1004 M_A1_mult_14_n109
*1005 M_A1_mult_14_n108
*1006 M_A1_mult_14_n107
*1007 M_A1_mult_14_n106
*1008 M_A1_mult_14_n105
*1009 M_A1_mult_14_n104
*1010 M_A1_mult_14_n103
*1011 M_A1_mult_14_n102
*1012 M_A1_mult_14_n101
*1013 M_A1_mult_14_n100
*1014 M_A1_mult_14_n99
*1015 M_A1_mult_14_n98
*1016 M_A1_mult_14_n95
*1017 M_A1_mult_14_n94
*1018 M_A1_mult_14_n93
*1019 M_A1_mult_14_n92
*1020 M_A1_mult_14_n91
*1021 M_A1_mult_14_n90
*1022 M_A1_mult_14_n87
*1023 M_A1_mult_14_n86
*1024 M_A1_mult_14_n85
*1025 M_A1_mult_14_n84
*1026 M_A1_mult_14_n83
*1027 M_A1_mult_14_n82
*1028 M_A1_mult_14_n79
*1029 M_A1_mult_14_n78
*1030 M_A1_mult_14_n77
*1031 M_A1_mult_14_n76
*1032 M_A1_mult_14_n70
*1033 M_A1_mult_14_n69
*1034 M_A1_mult_14_n68
*1035 M_A1_mult_14_n67
*1036 M_A1_mult_14_n66
*1037 M_A1_mult_14_n65
*1038 M_A1_mult_14_n63
*1039 M_A1_mult_14_n61
*1040 M_A1_mult_14_n60
*1041 M_A1_mult_14_n59
*1042 M_A1_mult_14_n58
*1043 M_A1_mult_14_n57
*1044 M_A1_mult_14_n56
*1045 M_A1_mult_14_n55
*1046 M_A1_mult_14_n54
*1047 M_A1_mult_14_n52
*1048 M_A1_mult_14_n50
*1049 M_A1_mult_14_n49
*1050 M_A1_mult_14_n47
*1051 M_A1_mult_14_n45
*1052 M_A1_mult_14_n44
*1053 M_A1_mult_14_n43
*1054 M_A1_mult_14_n42
*1055 M_A1_mult_14_n41
*1056 M_A1_mult_14_n40
*1057 M_A1_mult_14_n39
*1058 M_A1_mult_14_n38
*1059 M_A1_mult_14_n37
*1060 M_A1_mult_14_n36
*1061 M_A1_mult_14_n35
*1062 M_A1_mult_14_n33
*1063 M_A1_mult_14_n31
*1064 M_A1_mult_14_n29
*1065 M_A1_mult_14_n27
*1066 M_A1_mult_14_n26
*1067 M_A1_mult_14_n23
*1068 M_A1_mult_14_n22
*1069 M_A1_mult_14_n21
*1070 M_A1_mult_14_n20
*1071 M_A1_mult_14_n19
*1072 M_A1_mult_14_n18
*1073 M_A1_mult_14_n17
*1074 M_A1_mult_14_n16
*1075 M_A1_mult_14_n15
*1076 M_A1_mult_14_n14
*1077 M_A1_mult_14_n13
*1078 M_A1_mult_14_n8
*1079 M_A1_mult_14_n4
*1080 M_b1_P_0_
*1081 M_b1_mult_14_n521
*1082 M_b1_mult_14_n520
*1083 M_b1_mult_14_n519
*1084 M_b1_mult_14_n518
*1085 M_b1_mult_14_n517
*1086 M_b1_mult_14_n516
*1087 M_b1_mult_14_n515
*1088 M_b1_mult_14_n514
*1089 M_b1_mult_14_n513
*1090 M_b1_mult_14_n512
*1091 M_b1_mult_14_n511
*1092 M_b1_mult_14_n510
*1093 M_b1_mult_14_n509
*1094 M_b1_mult_14_n508
*1095 M_b1_mult_14_n507
*1096 M_b1_mult_14_n506
*1097 M_b1_mult_14_n505
*1098 M_b1_mult_14_n504
*1099 M_b1_mult_14_n503
*1100 M_b1_mult_14_n502
*1101 M_b1_mult_14_n501
*1102 M_b1_mult_14_n500
*1103 M_b1_mult_14_n499
*1104 M_b1_mult_14_n498
*1105 M_b1_mult_14_n497
*1106 M_b1_mult_14_n496
*1107 M_b1_mult_14_n495
*1108 M_b1_mult_14_n494
*1109 M_b1_mult_14_n493
*1110 M_b1_mult_14_n492
*1111 M_b1_mult_14_n491
*1112 M_b1_mult_14_n490
*1113 M_b1_mult_14_n489
*1114 M_b1_mult_14_n488
*1115 M_b1_mult_14_n487
*1116 M_b1_mult_14_n486
*1117 M_b1_mult_14_n485
*1118 M_b1_mult_14_n484
*1119 M_b1_mult_14_n483
*1120 M_b1_mult_14_n482
*1121 M_b1_mult_14_n481
*1122 M_b1_mult_14_n480
*1123 M_b1_mult_14_n479
*1124 M_b1_mult_14_n478
*1125 M_b1_mult_14_n477
*1126 M_b1_mult_14_n476
*1127 M_b1_mult_14_n475
*1128 M_b1_mult_14_n474
*1129 M_b1_mult_14_n473
*1130 M_b1_mult_14_n472
*1131 M_b1_mult_14_n471
*1132 M_b1_mult_14_n470
*1133 M_b1_mult_14_n469
*1134 M_b1_mult_14_n468
*1135 M_b1_mult_14_n467
*1136 M_b1_mult_14_n466
*1137 M_b1_mult_14_n465
*1138 M_b1_mult_14_n464
*1139 M_b1_mult_14_n463
*1140 M_b1_mult_14_n462
*1141 M_b1_mult_14_n461
*1142 M_b1_mult_14_n460
*1143 M_b1_mult_14_n459
*1144 M_b1_mult_14_n458
*1145 M_b1_mult_14_n457
*1146 M_b1_mult_14_n456
*1147 M_b1_mult_14_n455
*1148 M_b1_mult_14_n454
*1149 M_b1_mult_14_n453
*1150 M_b1_mult_14_n452
*1151 M_b1_mult_14_n451
*1152 M_b1_mult_14_n450
*1153 M_b1_mult_14_n449
*1154 M_b1_mult_14_n448
*1155 M_b1_mult_14_n447
*1156 M_b1_mult_14_n446
*1157 M_b1_mult_14_n445
*1158 M_b1_mult_14_n444
*1159 M_b1_mult_14_n443
*1160 M_b1_mult_14_n442
*1161 M_b1_mult_14_n441
*1162 M_b1_mult_14_n440
*1163 M_b1_mult_14_n439
*1164 M_b1_mult_14_n438
*1165 M_b1_mult_14_n437
*1166 M_b1_mult_14_n436
*1167 M_b1_mult_14_n435
*1168 M_b1_mult_14_n434
*1169 M_b1_mult_14_n433
*1170 M_b1_mult_14_n432
*1171 M_b1_mult_14_n431
*1172 M_b1_mult_14_n430
*1173 M_b1_mult_14_n429
*1174 M_b1_mult_14_n428
*1175 M_b1_mult_14_n427
*1176 M_b1_mult_14_n426
*1177 M_b1_mult_14_n425
*1178 M_b1_mult_14_n424
*1179 M_b1_mult_14_n423
*1180 M_b1_mult_14_n422
*1181 M_b1_mult_14_n421
*1182 M_b1_mult_14_n420
*1183 M_b1_mult_14_n419
*1184 M_b1_mult_14_n418
*1185 M_b1_mult_14_n415
*1186 M_b1_mult_14_n411
*1187 M_b1_mult_14_n409
*1188 M_b1_mult_14_n408
*1189 M_b1_mult_14_n407
*1190 M_b1_mult_14_n406
*1191 M_b1_mult_14_n405
*1192 M_b1_mult_14_n404
*1193 M_b1_mult_14_n403
*1194 M_b1_mult_14_n402
*1195 M_b1_mult_14_n401
*1196 M_b1_mult_14_n400
*1197 M_b1_mult_14_n399
*1198 M_b1_mult_14_n398
*1199 M_b1_mult_14_n397
*1200 M_b1_mult_14_n396
*1201 M_b1_mult_14_n395
*1202 M_b1_mult_14_n394
*1203 M_b1_mult_14_n393
*1204 M_b1_mult_14_n392
*1205 M_b1_mult_14_n391
*1206 M_b1_mult_14_n390
*1207 M_b1_mult_14_n389
*1208 M_b1_mult_14_n388
*1209 M_b1_mult_14_n387
*1210 M_b1_mult_14_n386
*1211 M_b1_mult_14_n211
*1212 M_b1_mult_14_n210
*1213 M_b1_mult_14_n209
*1214 M_b1_mult_14_n208
*1215 M_b1_mult_14_n207
*1216 M_b1_mult_14_n206
*1217 M_b1_mult_14_n205
*1218 M_b1_mult_14_n204
*1219 M_b1_mult_14_n201
*1220 M_b1_mult_14_n200
*1221 M_b1_mult_14_n199
*1222 M_b1_mult_14_n198
*1223 M_b1_mult_14_n197
*1224 M_b1_mult_14_n196
*1225 M_b1_mult_14_n195
*1226 M_b1_mult_14_n194
*1227 M_b1_mult_14_n193
*1228 M_b1_mult_14_n191
*1229 M_b1_mult_14_n190
*1230 M_b1_mult_14_n189
*1231 M_b1_mult_14_n188
*1232 M_b1_mult_14_n187
*1233 M_b1_mult_14_n186
*1234 M_b1_mult_14_n185
*1235 M_b1_mult_14_n184
*1236 M_b1_mult_14_n183
*1237 M_b1_mult_14_n182
*1238 M_b1_mult_14_n180
*1239 M_b1_mult_14_n179
*1240 M_b1_mult_14_n178
*1241 M_b1_mult_14_n177
*1242 M_b1_mult_14_n176
*1243 M_b1_mult_14_n175
*1244 M_b1_mult_14_n174
*1245 M_b1_mult_14_n173
*1246 M_b1_mult_14_n172
*1247 M_b1_mult_14_n171
*1248 M_b1_mult_14_n169
*1249 M_b1_mult_14_n168
*1250 M_b1_mult_14_n167
*1251 M_b1_mult_14_n165
*1252 M_b1_mult_14_n164
*1253 M_b1_mult_14_n163
*1254 M_b1_mult_14_n162
*1255 M_b1_mult_14_n161
*1256 M_b1_mult_14_n160
*1257 M_b1_mult_14_n158
*1258 M_b1_mult_14_n156
*1259 M_b1_mult_14_n155
*1260 M_b1_mult_14_n154
*1261 M_b1_mult_14_n153
*1262 M_b1_mult_14_n152
*1263 M_b1_mult_14_n151
*1264 M_b1_mult_14_n150
*1265 M_b1_mult_14_n149
*1266 M_b1_mult_14_n145
*1267 M_b1_mult_14_n144
*1268 M_b1_mult_14_n143
*1269 M_b1_mult_14_n142
*1270 M_b1_mult_14_n123
*1271 M_b1_mult_14_n122
*1272 M_b1_mult_14_n121
*1273 M_b1_mult_14_n120
*1274 M_b1_mult_14_n119
*1275 M_b1_mult_14_n118
*1276 M_b1_mult_14_n117
*1277 M_b1_mult_14_n116
*1278 M_b1_mult_14_n115
*1279 M_b1_mult_14_n114
*1280 M_b1_mult_14_n113
*1281 M_b1_mult_14_n112
*1282 M_b1_mult_14_n111
*1283 M_b1_mult_14_n110
*1284 M_b1_mult_14_n109
*1285 M_b1_mult_14_n108
*1286 M_b1_mult_14_n107
*1287 M_b1_mult_14_n106
*1288 M_b1_mult_14_n105
*1289 M_b1_mult_14_n104
*1290 M_b1_mult_14_n103
*1291 M_b1_mult_14_n102
*1292 M_b1_mult_14_n101
*1293 M_b1_mult_14_n100
*1294 M_b1_mult_14_n99
*1295 M_b1_mult_14_n98
*1296 M_b1_mult_14_n97
*1297 M_b1_mult_14_n96
*1298 M_b1_mult_14_n95
*1299 M_b1_mult_14_n94
*1300 M_b1_mult_14_n93
*1301 M_b1_mult_14_n92
*1302 M_b1_mult_14_n91
*1303 M_b1_mult_14_n90
*1304 M_b1_mult_14_n89
*1305 M_b1_mult_14_n88
*1306 M_b1_mult_14_n87
*1307 M_b1_mult_14_n86
*1308 M_b1_mult_14_n85
*1309 M_b1_mult_14_n84
*1310 M_b1_mult_14_n83
*1311 M_b1_mult_14_n82
*1312 M_b1_mult_14_n81
*1313 M_b1_mult_14_n80
*1314 M_b1_mult_14_n79
*1315 M_b1_mult_14_n78
*1316 M_b1_mult_14_n77
*1317 M_b1_mult_14_n76
*1318 M_b1_mult_14_n75
*1319 M_b1_mult_14_n74
*1320 M_b1_mult_14_n72
*1321 M_b1_mult_14_n71
*1322 M_b1_mult_14_n70
*1323 M_b1_mult_14_n69
*1324 M_b1_mult_14_n68
*1325 M_b1_mult_14_n67
*1326 M_b1_mult_14_n66
*1327 M_b1_mult_14_n65
*1328 M_b1_mult_14_n64
*1329 M_b1_mult_14_n63
*1330 M_b1_mult_14_n62
*1331 M_b1_mult_14_n61
*1332 M_b1_mult_14_n60
*1333 M_b1_mult_14_n59
*1334 M_b1_mult_14_n58
*1335 M_b1_mult_14_n57
*1336 M_b1_mult_14_n56
*1337 M_b1_mult_14_n54
*1338 M_b1_mult_14_n53
*1339 M_b1_mult_14_n52
*1340 M_b1_mult_14_n51
*1341 M_b1_mult_14_n50
*1342 M_b1_mult_14_n49
*1343 M_b1_mult_14_n48
*1344 M_b1_mult_14_n47
*1345 M_b1_mult_14_n46
*1346 M_b1_mult_14_n45
*1347 M_b1_mult_14_n44
*1348 M_b1_mult_14_n43
*1349 M_b1_mult_14_n42
*1350 M_b1_mult_14_n40