*SPEF "IEEE 1481-1998"
*DESIGN "myiir"
*DATE "Sun Nov 21 16:18:22 2021"
*VENDOR "Cadence Design Systems, Inc."
*PROGRAM "Innovus"
*VERSION "17.11-s080_1"
*DESIGN_FLOW "COUPLING C" "PIN_CAP NONE" "NAME_SCOPE LOCAL"
*DIVIDER /
*DELIMITER :
*BUS_DELIMITER []
*T_UNIT 1 NS
*C_UNIT 1 PF
*R_UNIT 1 OHM
*L_UNIT 1 HENRY

// MMMC spef file for corner 'my_rc'

*NAME_MAP

*1 CLK
*2 RST_n
*3 VIN
*4 DIN[12]
*5 DIN[11]
*6 DIN[10]
*7 DIN[9]
*8 DIN[8]
*9 DIN[7]
*10 DIN[6]
*11 DIN[5]
*12 DIN[4]
*13 DIN[3]
*14 DIN[2]
*15 DIN[1]
*16 DIN[0]
*17 B0[12]
*18 B0[11]
*19 B0[10]
*20 B0[9]
*21 B0[8]
*22 B0[7]
*23 B0[6]
*24 B0[5]
*25 B0[4]
*26 B0[3]
*27 B0[2]
*28 B0[1]
*29 B0[0]
*30 B1_A1B0[12]
*31 B1_A1B0[11]
*32 B1_A1B0[10]
*33 B1_A1B0[9]
*34 B1_A1B0[8]
*35 B1_A1B0[7]
*36 B1_A1B0[6]
*37 B1_A1B0[5]
*38 B1_A1B0[4]
*39 B1_A1B0[3]
*40 B1_A1B0[2]
*41 B1_A1B0[1]
*42 B1_A1B0[0]
*43 A1B1[12]
*44 A1B1[11]
*45 A1B1[10]
*46 A1B1[9]
*47 A1B1[8]
*48 A1B1[7]
*49 A1B1[6]
*50 A1B1[5]
*51 A1B1[4]
*52 A1B1[3]
*53 A1B1[2]
*54 A1B1[1]
*55 A1B1[0]
*56 A1_2[12]
*57 A1_2[11]
*58 A1_2[10]
*59 A1_2[9]
*60 A1_2[8]
*61 A1_2[7]
*62 A1_2[6]
*63 A1_2[5]
*64 A1_2[4]
*65 A1_2[3]
*66 A1_2[2]
*67 A1_2[1]
*68 A1_2[0]
*69 DOUT[12]
*70 DOUT[11]
*71 DOUT[10]
*72 DOUT[9]
*73 DOUT[8]
*74 DOUT[7]
*75 DOUT[6]
*76 VOUT
*77 FE_OFN3_curr6_1
*78 FE_OFN2_curr6_5
*79 FE_OFN1_curr3A_1
*80 FE_OFN0_curr6_9
*81 currVinDelay2
*82 currVinDelay3
*83 currVinDelay4
*84 N10
*85 N140
*86 N141
*87 N142
*88 N143
*89 n28
*90 n29
*91 n30
*92 n31
*93 n32
*94 n33
*95 n34
*96 n35
*97 n36
*98 n37
*99 n38
*100 n39
*101 n40
*102 n41
*103 n42
*104 n43
*105 n44
*106 n45
*107 n46
*108 n47
*109 n48
*110 n49
*111 n50
*112 n51
*113 n52
*114 n53
*115 n54
*116 n55
*117 n56
*118 n57
*119 n58
*120 n59
*121 n60
*122 n61
*123 n62
*124 n63
*125 n64
*126 n65
*127 n66
*128 n67
*129 n68
*130 n69
*131 n70
*132 n71
*133 n72
*134 n73
*135 n74
*136 n75
*137 n76
*138 n77
*139 n78
*140 n79
*141 n80
*142 n81
*143 n82
*144 n133
*145 n148
*146 n149
*147 n150
*148 n151
*149 n152
*150 n153
*151 n154
*152 n155
*153 n156
*154 n157
*155 n158
*156 n159
*157 n160
*158 n161
*159 n162
*160 n163
*161 n164
*162 n165
*163 n166
*164 n167
*165 n168
*166 n169
*167 n170
*168 n171
*169 n175
*170 n176
*171 n177
*172 n178
*173 n187
*174 n188
*175 n189
*176 n190
*177 n197
*178 n198
*179 n199
*180 n200
*181 n207
*182 n208
*183 n209
*184 n210
*185 n211
*186 n212
*187 n221
*188 n222
*189 n223
*190 n224
*191 n225
*192 n226
*193 n227
*194 n228
*195 n229
*196 n230
*197 n231
*198 n232
*199 n233
*200 n234
*201 n235
*202 n236
*203 n237
*204 n238
*205 n239
*206 n240
*207 n241
*208 n242
*209 n243
*210 n244
*211 n245
*212 n246
*213 n247
*214 n248
*215 n249
*216 n250
*217 n251
*218 n252
*219 n253
*220 n254
*221 n255
*222 n256
*223 n257
*224 n258
*225 n259
*226 n260
*227 n261
*228 n262
*229 n263
*230 n264
*231 n265
*232 n266
*233 n267
*234 n268
*235 n269
*236 n270
*237 n271
*238 n272
*239 n273
*240 n274
*241 n275
*242 n276
*243 n277
*244 n278
*245 n279
*246 n280
*247 n281
*248 n282
*249 n283
*250 n284
*251 n285
*252 n286
*253 n287
*254 n288
*255 n289
*256 n290
*257 n291
*258 n292
*259 n293
*260 n294
*261 n295
*262 n296
*263 n297
*264 n298
*265 n299
*266 n300
*267 n301
*268 n302
*269 n313
*270 n314
*271 n315
*272 n316
*273 n317
*274 n318
*275 n319
*276 n320
*277 n321
*278 n322
*279 n323
*280 n324
*281 n325
*282 n326
*283 n327
*284 n328
*285 n329
*286 n330
*287 n331
*288 n332
*289 n333
*290 n334
*291 n335
*292 n336
*293 n337
*294 n338
*295 n339
*296 n340
*297 n341
*298 n342
*299 n343
*300 n344
*301 n356
*302 n357
*303 n358
*304 n359
*305 n360
*306 n361
*307 n362
*308 n363
*309 n364
*310 n365
*311 n366
*312 n367
*313 n368
*314 n369
*315 n370
*316 n371
*317 n372
*318 n373
*319 n374
*320 n375
*321 n376
*322 n377
*323 n378
*324 n379
*325 n380
*326 n381
*327 n382
*328 n383
*329 n384
*330 n385
*331 n386
*332 n387
*333 n388
*334 n389
*335 n390
*336 n391
*337 n392
*338 n393
*339 n394
*340 n395
*341 n396
*342 n397
*343 n398
*344 n399
*345 n400
*346 n401
*347 n402
*348 n403
*349 n404
*350 n405
*351 n406
*352 n407
*353 n408
*354 n409
*355 n410
*356 n411
*357 n412
*358 n413
*359 n414
*360 n415
*361 n416
*362 n417
*363 n418
*364 n419
*365 n420
*366 n421
*367 n422
*368 n423
*369 n424
*370 n425
*371 n426
*372 n427
*373 n428
*374 n429
*375 n430
*376 n431
*377 n432
*378 n433
*379 M_B0_P_0_
*380 M_B0_P_1_
*381 M_B0_P_2_
*382 M_B0_P_3_
*383 M_B0_P_4_
*384 M_B0_P_5_
*385 M_B0_P_6_
*386 M_B0_P_7_
*387 M_B0_P_8_
*388 M_B0_P_9_
*389 M_B0_P_10_
*390 M_B0_P_11_
*391 M_B0_mult_14_n539
*392 M_B0_mult_14_n538
*393 M_B0_mult_14_n537
*394 M_B0_mult_14_n536
*395 M_B0_mult_14_n535
*396 M_B0_mult_14_n534
*397 M_B0_mult_14_n533
*398 M_B0_mult_14_n532
*399 M_B0_mult_14_n531
*400 M_B0_mult_14_n530
*401 M_B0_mult_14_n529
*402 M_B0_mult_14_n528
*403 M_B0_mult_14_n527
*404 M_B0_mult_14_n520
*405 M_B0_mult_14_n517
*406 M_B0_mult_14_n516
*407 M_B0_mult_14_n515
*408 M_B0_mult_14_n514
*409 M_B0_mult_14_n513
*410 M_B0_mult_14_n512
*411 M_B0_mult_14_n511
*412 M_B0_mult_14_n510
*413 M_B0_mult_14_n509
*414 M_B0_mult_14_n508
*415 M_B0_mult_14_n507
*416 M_B0_mult_14_n506
*417 M_B0_mult_14_n505
*418 M_B0_mult_14_n504
*419 M_B0_mult_14_n503
*420 M_B0_mult_14_n502
*421 M_B0_mult_14_n501
*422 M_B0_mult_14_n499
*423 M_B0_mult_14_n497
*424 M_B0_mult_14_n496
*425 M_B0_mult_14_n447
*426 M_B0_mult_14_n429
*427 M_B0_mult_14_n428
*428 M_B0_mult_14_n427
*429 M_B0_mult_14_n426
*430 M_B0_mult_14_n425
*431 M_B0_mult_14_n424
*432 M_B0_mult_14_n422
*433 M_B0_mult_14_n421
*434 M_B0_mult_14_n420
*435 M_B0_mult_14_n419
*436 M_B0_mult_14_n418
*437 M_B0_mult_14_n417
*438 M_B0_mult_14_n416
*439 M_B0_mult_14_n415
*440 M_B0_mult_14_n414
*441 M_B0_mult_14_n413
*442 M_B0_mult_14_n411
*443 M_B0_mult_14_n410
*444 M_B0_mult_14_n409
*445 M_B0_mult_14_n408
*446 M_B0_mult_14_n407
*447 M_B0_mult_14_n394
*448 M_B0_mult_14_n393
*449 M_B0_mult_14_n392
*450 M_B0_mult_14_n391
*451 M_B0_mult_14_n390
*452 M_B0_mult_14_n389
*453 M_B0_mult_14_n388
*454 M_B0_mult_14_n387
*455 M_B0_mult_14_n386
*456 M_B0_mult_14_n385
*457 M_B0_mult_14_n384
*458 M_B0_mult_14_n383
*459 M_B0_mult_14_n382
*460 M_B0_mult_14_n381
*461 M_B0_mult_14_n380
*462 M_B0_mult_14_n379
*463 M_B0_mult_14_n378
*464 M_B0_mult_14_n377
*465 M_B0_mult_14_n376
*466 M_B0_mult_14_n375
*467 M_B0_mult_14_n374
*468 M_B0_mult_14_n373
*469 M_B0_mult_14_n372
*470 M_B0_mult_14_n371
*471 M_B0_mult_14_n370
*472 M_B0_mult_14_n369
*473 M_B0_mult_14_n368
*474 M_B0_mult_14_n367
*475 M_B0_mult_14_n366
*476 M_B0_mult_14_n365
*477 M_B0_mult_14_n364
*478 M_B0_mult_14_n363
*479 M_B0_mult_14_n362
*480 M_B0_mult_14_n361
*481 M_B0_mult_14_n360
*482 M_B0_mult_14_n359
*483 M_B0_mult_14_n358
*484 M_B0_mult_14_n357
*485 M_B0_mult_14_n356
*486 M_B0_mult_14_n355
*487 M_B0_mult_14_n354
*488 M_B0_mult_14_n353
*489 M_B0_mult_14_n352
*490 M_B0_mult_14_n351
*491 M_B0_mult_14_n350
*492 M_B0_mult_14_n349
*493 M_B0_mult_14_n348
*494 M_B0_mult_14_n347
*495 M_B0_mult_14_n346
*496 M_B0_mult_14_n345
*497 M_B0_mult_14_n344
*498 M_B0_mult_14_n343
*499 M_B0_mult_14_n342
*500 M_B0_mult_14_n341
*501 M_B0_mult_14_n340
*502 M_B0_mult_14_n339
*503 M_B0_mult_14_n338
*504 M_B0_mult_14_n337
*505 M_B0_mult_14_n336
*506 M_B0_mult_14_n335
*507 M_B0_mult_14_n334
*508 M_B0_mult_14_n332
*509 M_B0_mult_14_n331
*510 M_B0_mult_14_n330
*511 M_B0_mult_14_n329
*512 M_B0_mult_14_n328
*513 M_B0_mult_14_n327
*514 M_B0_mult_14_n326
*515 M_B0_mult_14_n325
*516 M_B0_mult_14_n324
*517 M_B0_mult_14_n323
*518 M_B0_mult_14_n322
*519 M_B0_mult_14_n321
*520 M_B0_mult_14_n320
*521 M_B0_mult_14_n319
*522 M_B0_mult_14_n318
*523 M_B0_mult_14_n317
*524 M_B0_mult_14_n316
*525 M_B0_mult_14_n315
*526 M_B0_mult_14_n314
*527 M_B0_mult_14_n313
*528 M_B0_mult_14_n312
*529 M_B0_mult_14_n311
*530 M_B0_mult_14_n310
*531 M_B0_mult_14_n309
*532 M_B0_mult_14_n308
*533 M_B0_mult_14_n307
*534 M_B0_mult_14_n306
*535 M_B0_mult_14_n305
*536 M_B0_mult_14_n304
*537 M_B0_mult_14_n303
*538 M_B0_mult_14_n302
*539 M_B0_mult_14_n301
*540 M_B0_mult_14_n300
*541 M_B0_mult_14_n299
*542 M_B0_mult_14_n298
*543 M_B0_mult_14_n297
*544 M_B0_mult_14_n296
*545 M_B0_mult_14_n295
*546 M_B0_mult_14_n294
*547 M_B0_mult_14_n293
*548 M_B0_mult_14_n292
*549 M_B0_mult_14_n291
*550 M_B0_mult_14_n290
*551 M_B0_mult_14_n289
*552 M_B0_mult_14_n288
*553 M_B0_mult_14_n287
*554 M_B0_mult_14_n286
*555 M_B0_mult_14_n285
*556 M_B0_mult_14_n284
*557 M_B0_mult_14_n283
*558 M_B0_mult_14_n282
*559 M_B0_mult_14_n281
*560 M_B0_mult_14_n280
*561 M_B0_mult_14_n279
*562 M_B0_mult_14_n278
*563 M_B0_mult_14_n277
*564 M_B0_mult_14_n276
*565 M_B0_mult_14_n275
*566 M_B0_mult_14_n274
*567 M_B0_mult_14_n273
*568 M_B0_mult_14_n272
*569 M_B0_mult_14_n271
*570 M_B0_mult_14_n270
*571 M_B0_mult_14_n269
*572 M_B0_mult_14_n268
*573 M_B0_mult_14_n267
*574 M_B0_mult_14_n266
*575 M_B0_mult_14_n265
*576 M_B0_mult_14_n264
*577 M_B0_mult_14_n263
*578 M_B0_mult_14_n262
*579 M_B0_mult_14_n261
*580 M_B0_mult_14_n260
*581 M_B0_mult_14_n259
*582 M_B0_mult_14_n258
*583 M_B0_mult_14_n256
*584 M_B0_mult_14_n255
*585 M_B0_mult_14_n254
*586 M_B0_mult_14_n253
*587 M_B0_mult_14_n252
*588 M_B0_mult_14_n251
*589 M_B0_mult_14_n248
*590 M_B0_mult_14_n246
*591 M_B0_mult_14_n245
*592 M_B0_mult_14_n243
*593 M_B0_mult_14_n242
*594 M_B0_mult_14_n240
*595 M_B0_mult_14_n239
*596 M_B0_mult_14_n237
*597 M_B0_mult_14_n236
*598 M_B0_mult_14_n234
*599 M_B0_mult_14_n233
*600 M_B0_mult_14_n232
*601 M_B0_mult_14_n231
*602 M_B0_mult_14_n230
*603 M_B0_mult_14_n229
*604 M_B0_mult_14_n228
*605 M_B0_mult_14_n227
*606 M_B0_mult_14_n226
*607 M_B0_mult_14_n225
*608 M_B0_mult_14_n224
*609 M_B0_mult_14_n223
*610 M_B0_mult_14_n222
*611 M_B0_mult_14_n221
*612 M_B0_mult_14_n220
*613 M_B0_mult_14_n219
*614 M_B0_mult_14_n218
*615 M_B0_mult_14_n217
*616 M_B0_mult_14_n216
*617 M_B0_mult_14_n215
*618 M_B0_mult_14_n214
*619 M_B0_mult_14_n213
*620 M_B0_mult_14_n212
*621 M_B0_mult_14_n211
*622 M_B0_mult_14_n210
*623 M_B0_mult_14_n209
*624 M_B0_mult_14_n208
*625 M_B0_mult_14_n207
*626 M_B0_mult_14_n206
*627 M_B0_mult_14_n205
*628 M_B0_mult_14_n204
*629 M_B0_mult_14_n203
*630 M_B0_mult_14_n202
*631 M_B0_mult_14_n201
*632 M_B0_mult_14_n200
*633 M_B0_mult_14_n199
*634 M_B0_mult_14_n198
*635 M_B0_mult_14_n197
*636 M_B0_mult_14_n196
*637 M_B0_mult_14_n195
*638 M_B0_mult_14_n194
*639 M_B0_mult_14_n193
*640 M_B0_mult_14_n192
*641 M_B0_mult_14_n191
*642 M_B0_mult_14_n190
*643 M_B0_mult_14_n189
*644 M_B0_mult_14_n188
*645 M_B0_mult_14_n187
*646 M_B0_mult_14_n186
*647 M_B0_mult_14_n185
*648 M_B0_mult_14_n184
*649 M_B0_mult_14_n183
*650 M_B0_mult_14_n182
*651 M_B0_mult_14_n181
*652 M_B0_mult_14_n180
*653 M_B0_mult_14_n179
*654 M_B0_mult_14_n178
*655 M_B0_mult_14_n177
*656 M_B0_mult_14_n176
*657 M_B0_mult_14_n175
*658 M_B0_mult_14_n174
*659 M_B0_mult_14_n173
*660 M_B0_mult_14_n172
*661 M_B0_mult_14_n171
*662 M_B0_mult_14_n170
*663 M_B0_mult_14_n169
*664 M_B0_mult_14_n168
*665 M_B0_mult_14_n167
*666 M_B0_mult_14_n166
*667 M_B0_mult_14_n165
*668 M_B0_mult_14_n164
*669 M_B0_mult_14_n163
*670 M_B0_mult_14_n162
*671 M_B0_mult_14_n161
*672 M_B0_mult_14_n160
*673 M_B0_mult_14_n159
*674 M_B0_mult_14_n158
*675 M_B0_mult_14_n157
*676 M_B0_mult_14_n156
*677 M_B0_mult_14_n155
*678 M_B0_mult_14_n154
*679 M_B0_mult_14_n153
*680 M_B0_mult_14_n152
*681 M_B0_mult_14_n151
*682 M_B0_mult_14_n150
*683 M_B0_mult_14_n149
*684 M_B0_mult_14_n148
*685 M_B0_mult_14_n147
*686 M_B0_mult_14_n146
*687 M_B0_mult_14_n145
*688 M_B0_mult_14_n144
*689 M_B0_mult_14_n143
*690 M_B0_mult_14_n142
*691 M_B0_mult_14_n141
*692 M_B0_mult_14_n140
*693 M_B0_mult_14_n139
*694 M_B0_mult_14_n138
*695 M_B0_mult_14_n137
*696 M_B0_mult_14_n136
*697 M_B0_mult_14_n135
*698 M_B0_mult_14_n134
*699 M_B0_mult_14_n133
*700 M_B0_mult_14_n130
*701 M_B0_mult_14_n129
*702 M_B0_mult_14_n127
*703 M_B0_mult_14_n123
*704 M_B0_mult_14_n122
*705 M_B0_mult_14_n120
*706 M_B0_mult_14_n117
*707 M_B0_mult_14_n115
*708 M_B0_mult_14_n113
*709 M_B0_mult_14_n112
*710 M_B0_mult_14_n110
*711 M_B0_mult_14_n109
*712 M_B0_mult_14_n107
*713 M_B0_mult_14_n105
*714 M_B0_mult_14_n104
*715 M_B0_mult_14_n103
*716 M_B0_mult_14_n102
*717 M_B0_mult_14_n101
*718 M_B0_mult_14_n100
*719 M_B0_mult_14_n99
*720 M_B0_mult_14_n98
*721 M_B0_mult_14_n97
*722 M_B0_mult_14_n95
*723 M_B0_mult_14_n93
*724 M_B0_mult_14_n92
*725 M_B0_mult_14_n91
*726 M_B0_mult_14_n90
*727 M_B0_mult_14_n89
*728 M_B0_mult_14_n87
*729 M_B0_mult_14_n85
*730 M_B0_mult_14_n84
*731 M_B0_mult_14_n83
*732 M_B0_mult_14_n81
*733 M_B0_mult_14_n79
*734 M_B0_mult_14_n78
*735 M_B0_mult_14_n76
*736 M_B0_mult_14_n74
*737 M_B0_mult_14_n73
*738 M_B0_mult_14_n72
*739 M_B0_mult_14_n71
*740 M_B0_mult_14_n70
*741 M_B0_mult_14_n69
*742 M_B0_mult_14_n68
*743 M_B0_mult_14_n67
*744 M_B0_mult_14_n66
*745 M_B0_mult_14_n65
*746 M_B0_mult_14_n64
*747 M_B0_mult_14_n63
*748 M_B0_mult_14_n62
*749 M_B0_mult_14_n61
*750 M_B0_mult_14_n60
*751 M_B0_mult_14_n59
*752 M_B0_mult_14_n58
*753 M_B0_mult_14_n57
*754 M_B0_mult_14_n56
*755 M_B0_mult_14_n55
*756 M_B0_mult_14_n54
*757 M_B0_mult_14_n53
*758 M_B0_mult_14_n52
*759 M_B0_mult_14_n51
*760 M_B0_mult_14_n49
*761 M_B0_mult_14_n47
*762 M_B0_mult_14_n46
*763 M_B0_mult_14_n45
*764 M_B0_mult_14_n44
*765 M_B0_mult_14_n42
*766 M_B0_mult_14_n40
*767 M_B0_mult_14_n39
*768 M_B0_mult_14_n38
*769 M_B0_mult_14_n37
*770 M_B0_mult_14_n36
*771 M_B0_mult_14_n34
*772 M_B0_mult_14_n32
*773 M_B0_mult_14_n31
*774 M_B0_mult_14_n30
*775 M_B0_mult_14_n29
*776 M_B0_mult_14_n28
*777 M_B0_mult_14_n26
*778 M_B0_mult_14_n24
*779 M_B0_mult_14_n23
*780 M_B0_mult_14_n21
*781 M_B0_mult_14_n20
*782 M_B0_mult_14_n19
*783 M_B0_mult_14_n18
*784 M_B0_mult_14_n17
*785 M_B0_mult_14_n16
*786 M_B0_mult_14_n15
*787 M_B0_mult_14_n14
*788 M_B0_mult_14_n13
*789 M_B0_mult_14_n12
*790 M_B0_mult_14_n11
*791 M_B0_mult_14_n10
*792 M_B0_mult_14_n9
*793 M_B0_mult_14_n8
*794 M_B0_mult_14_n7
*795 M_B0_mult_14_n6
*796 M_B0_mult_14_n5
*797 M_B0_mult_14_n4
*798 M_B1_A1B0_P_0_
*799 M_B1_A1B0_P_1_
*800 M_B1_A1B0_P_2_
*801 M_B1_A1B0_P_3_
*802 M_B1_A1B0_P_4_
*803 M_B1_A1B0_P_5_
*804 M_B1_A1B0_P_6_
*805 M_B1_A1B0_P_7_
*806 M_B1_A1B0_P_8_
*807 M_B1_A1B0_P_9_
*808 M_B1_A1B0_P_10_
*809 M_B1_A1B0_P_11_
*810 M_B1_A1B0_mult_14_n547
*811 M_B1_A1B0_mult_14_n546
*812 M_B1_A1B0_mult_14_n545
*813 M_B1_A1B0_mult_14_n544
*814 M_B1_A1B0_mult_14_n543
*815 M_B1_A1B0_mult_14_n542
*816 M_B1_A1B0_mult_14_n541
*817 M_B1_A1B0_mult_14_n540
*818 M_B1_A1B0_mult_14_n539
*819 M_B1_A1B0_mult_14_n538
*820 M_B1_A1B0_mult_14_n537
*821 M_B1_A1B0_mult_14_n536
*822 M_B1_A1B0_mult_14_n535
*823 M_B1_A1B0_mult_14_n534
*824 M_B1_A1B0_mult_14_n533
*825 M_B1_A1B0_mult_14_n532
*826 M_B1_A1B0_mult_14_n531
*827 M_B1_A1B0_mult_14_n530
*828 M_B1_A1B0_mult_14_n529
*829 M_B1_A1B0_mult_14_n528
*830 M_B1_A1B0_mult_14_n527
*831 M_B1_A1B0_mult_14_n526
*832 M_B1_A1B0_mult_14_n525
*833 M_B1_A1B0_mult_14_n524
*834 M_B1_A1B0_mult_14_n521
*835 M_B1_A1B0_mult_14_n518
*836 M_B1_A1B0_mult_14_n515
*837 M_B1_A1B0_mult_14_n514
*838 M_B1_A1B0_mult_14_n512
*839 M_B1_A1B0_mult_14_n511
*840 M_B1_A1B0_mult_14_n510
*841 M_B1_A1B0_mult_14_n509
*842 M_B1_A1B0_mult_14_n508
*843 M_B1_A1B0_mult_14_n507
*844 M_B1_A1B0_mult_14_n506
*845 M_B1_A1B0_mult_14_n505
*846 M_B1_A1B0_mult_14_n504
*847 M_B1_A1B0_mult_14_n501
*848 M_B1_A1B0_mult_14_n499
*849 M_B1_A1B0_mult_14_n498
*850 M_B1_A1B0_mult_14_n447
*851 M_B1_A1B0_mult_14_n429
*852 M_B1_A1B0_mult_14_n428
*853 M_B1_A1B0_mult_14_n427
*854 M_B1_A1B0_mult_14_n426
*855 M_B1_A1B0_mult_14_n425
*856 M_B1_A1B0_mult_14_n424
*857 M_B1_A1B0_mult_14_n422
*858 M_B1_A1B0_mult_14_n421
*859 M_B1_A1B0_mult_14_n420
*860 M_B1_A1B0_mult_14_n419
*861 M_B1_A1B0_mult_14_n418
*862 M_B1_A1B0_mult_14_n417
*863 M_B1_A1B0_mult_14_n416
*864 M_B1_A1B0_mult_14_n415
*865 M_B1_A1B0_mult_14_n414
*866 M_B1_A1B0_mult_14_n413
*867 M_B1_A1B0_mult_14_n411
*868 M_B1_A1B0_mult_14_n410
*869 M_B1_A1B0_mult_14_n409
*870 M_B1_A1B0_mult_14_n408
*871 M_B1_A1B0_mult_14_n407
*872 M_B1_A1B0_mult_14_n394
*873 M_B1_A1B0_mult_14_n393
*874 M_B1_A1B0_mult_14_n392
*875 M_B1_A1B0_mult_14_n391
*876 M_B1_A1B0_mult_14_n390
*877 M_B1_A1B0_mult_14_n389
*878 M_B1_A1B0_mult_14_n388
*879 M_B1_A1B0_mult_14_n387
*880 M_B1_A1B0_mult_14_n386
*881 M_B1_A1B0_mult_14_n385
*882 M_B1_A1B0_mult_14_n384
*883 M_B1_A1B0_mult_14_n383
*884 M_B1_A1B0_mult_14_n382
*885 M_B1_A1B0_mult_14_n381
*886 M_B1_A1B0_mult_14_n380
*887 M_B1_A1B0_mult_14_n379
*888 M_B1_A1B0_mult_14_n378
*889 M_B1_A1B0_mult_14_n377
*890 M_B1_A1B0_mult_14_n376
*891 M_B1_A1B0_mult_14_n375
*892 M_B1_A1B0_mult_14_n374
*893 M_B1_A1B0_mult_14_n373
*894 M_B1_A1B0_mult_14_n372
*895 M_B1_A1B0_mult_14_n371
*896 M_B1_A1B0_mult_14_n370
*897 M_B1_A1B0_mult_14_n369
*898 M_B1_A1B0_mult_14_n368
*899 M_B1_A1B0_mult_14_n367
*900 M_B1_A1B0_mult_14_n366
*901 M_B1_A1B0_mult_14_n365
*902 M_B1_A1B0_mult_14_n364
*903 M_B1_A1B0_mult_14_n363
*904 M_B1_A1B0_mult_14_n362
*905 M_B1_A1B0_mult_14_n361
*906 M_B1_A1B0_mult_14_n360
*907 M_B1_A1B0_mult_14_n359
*908 M_B1_A1B0_mult_14_n358
*909 M_B1_A1B0_mult_14_n357
*910 M_B1_A1B0_mult_14_n356
*911 M_B1_A1B0_mult_14_n355
*912 M_B1_A1B0_mult_14_n354
*913 M_B1_A1B0_mult_14_n353
*914 M_B1_A1B0_mult_14_n352
*915 M_B1_A1B0_mult_14_n351
*916 M_B1_A1B0_mult_14_n349
*917 M_B1_A1B0_mult_14_n348
*918 M_B1_A1B0_mult_14_n347
*919 M_B1_A1B0_mult_14_n346
*920 M_B1_A1B0_mult_14_n345
*921 M_B1_A1B0_mult_14_n344
*922 M_B1_A1B0_mult_14_n343
*923 M_B1_A1B0_mult_14_n342
*924 M_B1_A1B0_mult_14_n341
*925 M_B1_A1B0_mult_14_n340
*926 M_B1_A1B0_mult_14_n339
*927 M_B1_A1B0_mult_14_n338
*928 M_B1_A1B0_mult_14_n337
*929 M_B1_A1B0_mult_14_n336
*930 M_B1_A1B0_mult_14_n335
*931 M_B1_A1B0_mult_14_n334
*932 M_B1_A1B0_mult_14_n332
*933 M_B1_A1B0_mult_14_n331
*934 M_B1_A1B0_mult_14_n330
*935 M_B1_A1B0_mult_14_n329
*936 M_B1_A1B0_mult_14_n328
*937 M_B1_A1B0_mult_14_n327
*938 M_B1_A1B0_mult_14_n326
*939 M_B1_A1B0_mult_14_n325
*940 M_B1_A1B0_mult_14_n324
*941 M_B1_A1B0_mult_14_n323
*942 M_B1_A1B0_mult_14_n322
*943 M_B1_A1B0_mult_14_n321
*944 M_B1_A1B0_mult_14_n320
*945 M_B1_A1B0_mult_14_n319
*946 M_B1_A1B0_mult_14_n318
*947 M_B1_A1B0_mult_14_n317
*948 M_B1_A1B0_mult_14_n316
*949 M_B1_A1B0_mult_14_n315
*950 M_B1_A1B0_mult_14_n314
*951 M_B1_A1B0_mult_14_n313
*952 M_B1_A1B0_mult_14_n312
*953 M_B1_A1B0_mult_14_n311
*954 M_B1_A1B0_mult_14_n310
*955 M_B1_A1B0_mult_14_n309
*956 M_B1_A1B0_mult_14_n308
*957 M_B1_A1B0_mult_14_n307
*958 M_B1_A1B0_mult_14_n306
*959 M_B1_A1B0_mult_14_n305
*960 M_B1_A1B0_mult_14_n304
*961 M_B1_A1B0_mult_14_n303
*962 M_B1_A1B0_mult_14_n302
*963 M_B1_A1B0_mult_14_n301
*964 M_B1_A1B0_mult_14_n300
*965 M_B1_A1B0_mult_14_n299
*966 M_B1_A1B0_mult_14_n298
*967 M_B1_A1B0_mult_14_n297
*968 M_B1_A1B0_mult_14_n296
*969 M_B1_A1B0_mult_14_n295
*970 M_B1_A1B0_mult_14_n294
*971 M_B1_A1B0_mult_14_n293
*972 M_B1_A1B0_mult_14_n292
*973 M_B1_A1B0_mult_14_n291
*974 M_B1_A1B0_mult_14_n290
*975 M_B1_A1B0_mult_14_n289
*976 M_B1_A1B0_mult_14_n288
*977 M_B1_A1B0_mult_14_n287
*978 M_B1_A1B0_mult_14_n286
*979 M_B1_A1B0_mult_14_n285
*980 M_B1_A1B0_mult_14_n284
*981 M_B1_A1B0_mult_14_n283
*982 M_B1_A1B0_mult_14_n282
*983 M_B1_A1B0_mult_14_n281
*984 M_B1_A1B0_mult_14_n280
*985 M_B1_A1B0_mult_14_n279
*986 M_B1_A1B0_mult_14_n278
*987 M_B1_A1B0_mult_14_n277
*988 M_B1_A1B0_mult_14_n276
*989 M_B1_A1B0_mult_14_n275
*990 M_B1_A1B0_mult_14_n274
*991 M_B1_A1B0_mult_14_n273
*992 M_B1_A1B0_mult_14_n272
*993 M_B1_A1B0_mult_14_n271
*994 M_B1_A1B0_mult_14_n270
*995 M_B1_A1B0_mult_14_n269
*996 M_B1_A1B0_mult_14_n268
*997 M_B1_A1B0_mult_14_n267
*998 M_B1_A1B0_mult_14_n266
*999 M_B1_A1B0_mult_14_n265
*1000 M_B1_A1B0_mult_14_n264
*1001 M_B1_A1B0_mult_14_n263
*1002 M_B1_A1B0_mult_14_n262
*1003 M_B1_A1B0_mult_14_n261
*1004 M_B1_A1B0_mult_14_n260
*1005 M_B1_A1B0_mult_14_n259
*1006 M_B1_A1B0_mult_14_n258
*1007 M_B1_A1B0_mult_14_n256
*1008 M_B1_A1B0_mult_14_n255
*1009 M_B1_A1B0_mult_14_n254
*1010 M_B1_A1B0_mult_14_n253
*1011 M_B1_A1B0_mult_14_n252
*1012 M_B1_A1B0_mult_14_n251
*1013 M_B1_A1B0_mult_14_n248
*1014 M_B1_A1B0_mult_14_n246
*1015 M_B1_A1B0_mult_14_n245
*1016 M_B1_A1B0_mult_14_n243
*1017 M_B1_A1B0_mult_14_n242
*1018 M_B1_A1B0_mult_14_n240
*1019 M_B1_A1B0_mult_14_n239
*1020 M_B1_A1B0_mult_14_n237
*1021 M_B1_A1B0_mult_14_n236
*1022 M_B1_A1B0_mult_14_n234
*1023 M_B1_A1B0_mult_14_n233
*1024 M_B1_A1B0_mult_14_n232
*1025 M_B1_A1B0_mult_14_n231
*1026 M_B1_A1B0_mult_14_n230
*1027 M_B1_A1B0_mult_14_n229
*1028 M_B1_A1B0_mult_14_n228
*1029 M_B1_A1B0_mult_14_n227
*1030 M_B1_A1B0_mult_14_n226
*1031 M_B1_A1B0_mult_14_n225
*1032 M_B1_A1B0_mult_14_n224
*1033 M_B1_A1B0_mult_14_n223
*1034 M_B1_A1B0_mult_14_n222
*1035 M_B1_A1B0_mult_14_n221
*1036 M_B1_A1B0_mult_14_n220
*1037 M_B1_A1B0_mult_14_n219
*1038 M_B1_A1B0_mult_14_n218
*1039 M_B1_A1B0_mult_14_n217
*1040 M_B1_A1B0_mult_14_n216
*1041 M_B1_A1B0_mult_14_n215
*1042 M_B1_A1B0_mult_14_n214
*1043 M_B1_A1B0_mult_14_n213
*1044 M_B1_A1B0_mult_14_n212
*1045 M_B1_A1B0_mult_14_n211
*1046 M_B1_A1B0_mult_14_n210
*1047 M_B1_A1B0_mult_14_n209
*1048 M_B1_A1B0_mult_14_n208
*1049 M_B1_A1B0_mult_14_n207
*1050 M_B1_A1B0_mult_14_n206
*1051 M_B1_A1B0_mult_14_n205
*1052 M_B1_A1B0_mult_14_n204
*1053 M_B1_A1B0_mult_14_n203
*1054 M_B1_A1B0_mult_14_n202
*1055 M_B1_A1B0_mult_14_n201
*1056 M_B1_A1B0_mult_14_n200
*1057 M_B1_A1B0_mult_14_n199
*1058 M_B1_A1B0_mult_14_n198
*1059 M_B1_A1B0_mult_14_n197
*1060 M_B1_A1B0_mult_14_n196
*1061 M_B1_A1B0_mult_14_n195
*1062 M_B1_A1B0_mult_14_n194
*1063 M_B1_A1B0_mult_14_n193
*1064 M_B1_A1B0_mult_14_n192
*1065 M_B1_A1B0_mult_14_n191
*1066 M_B1_A1B0_mult_14_n190
*1067 M_B1_A1B0_mult_14_n189
*1068 M_B1_A1B0_mult_14_n188
*1069 M_B1_A1B0_mult_14_n187
*1070 M_B1_A1B0_mult_14_n186
*1071 M_B1_A1B0_mult_14_n185
*1072 M_B1_A1B0_mult_14_n184
*1073 M_B1_A1B0_mult_14_n183
*1074 M_B1_A1B0_mult_14_n182
*1075 M_B1_A1B0_mult_14_n181
*1076 M_B1_A1B0_mult_14_n180
*1077 M_B1_A1B0_mult_14_n179
*1078 M_B1_A1B0_mult_14_n178
*1079 M_B1_A1B0_mult_14_n177
*1080 M_B1_A1B0_mult_14_n176
*1081 M_B1_A1B0_mult_14_n175
*1082 M_B1_A1B0_mult_14_n174
*1083 M_B1_A1B0_mult_14_n173
*1084 M_B1_A1B0_mult_14_n172
*1085 M_B1_A1B0_mult_14_n171
*1086 M_B1_A1B0_mult_14_n170
*1087 M_B1_A1B0_mult_14_n169
*1088 M_B1_A1B0_mult_14_n168
*1089 M_B1_A1B0_mult_14_n167
*1090 M_B1_A1B0_mult_14_n166
*1091 M_B1_A1B0_mult_14_n165
*1092 M_B1_A1B0_mult_14_n164
*1093 M_B1_A1B0_mult_14_n163
*1094 M_B1_A1B0_mult_14_n162
*1095 M_B1_A1B0_mult_14_n161
*1096 M_B1_A1B0_mult_14_n160
*1097 M_B1_A1B0_mult_14_n159
*1098 M_B1_A1B0_mult_14_n158
*1099 M_B1_A1B0_mult_14_n157
*1100 M_B1_A1B0_mult_14_n156
*1101 M_B1_A1B0_mult_14_n155
*1102 M_B1_A1B0_mult_14_n154
*1103 M_B1_A1B0_mult_14_n153
*1104 M_B1_A1B0_mult_14_n152
*1105 M_B1_A1B0_mult_14_n151
*1106 M_B1_A1B0_mult_14_n150
*1107 M_B1_A1B0_mult_14_n149
*1108 M_B1_A1B0_mult_14_n148
*1109 M_B1_A1B0_mult_14_n147
*1110 M_B1_A1B0_mult_14_n146
*1111 M_B1_A1B0_mult_14_n145
*1112 M_B1_A1B0_mult_14_n144
*1113 M_B1_A1B0_mult_14_n143
*1114 M_B1_A1B0_mult_14_n142
*1115 M_B1_A1B0_mult_14_n141
*1116 M_B1_A1B0_mult_14_n140
*1117 M_B1_A1B0_mult_14_n139
*1118 M_B1_A1B0_mult_14_n138
*1119 M_B1_A1B0_mult_14_n137
*1120 M_B1_A1B0_mult_14_n136
*1121 M_B1_A1B0_mult_14_n135
*1122 M_B1_A1B0_mult_14_n134
*1123 M_B1_A1B0_mult_14_n133
*1124 M_B1_A1B0_mult_14_n130
*1125 M_B1_A1B0_mult_14_n129
*1126 M_B1_A1B0_mult_14_n127
*1127 M_B1_A1B0_mult_14_n123
*1128 M_B1_A1B0_mult_14_n122
*1129 M_B1_A1B0_mult_14_n117
*1130 M_B1_A1B0_mult_14_n115
*1131 M_B1_A1B0_mult_14_n113
*1132 M_B1_A1B0_mult_14_n112
*1133 M_B1_A1B0_mult_14_n110
*1134 M_B1_A1B0_mult_14_n109
*1135 M_B1_A1B0_mult_14_n107
*1136 M_B1_A1B0_mult_14_n105
*1137 M_B1_A1B0_mult_14_n104
*1138 M_B1_A1B0_mult_14_n103
*1139 M_B1_A1B0_mult_14_n102
*1140 M_B1_A1B0_mult_14_n101
*1141 M_B1_A1B0_mult_14_n100
*1142 M_B1_A1B0_mult_14_n99
*1143 M_B1_A1B0_mult_14_n98
*1144 M_B1_A1B0_mult_14_n97
*1145 M_B1_A1B0_mult_14_n95
*1146 M_B1_A1B0_mult_14_n93
*1147 M_B1_A1B0_mult_14_n92
*1148 M_B1_A1B0_mult_14_n91
*1149 M_B1_A1B0_mult_14_n90
*1150 M_B1_A1B0_mult_14_n89
*1151 M_B1_A1B0_mult_14_n87
*1152 M_B1_A1B0_mult_14_n85
*1153 M_B1_A1B0_mult_14_n84
*1154 M_B1_A1B0_mult_14_n83
*1155 M_B1_A1B0_mult_14_n81
*1156 M_B1_A1B0_mult_14_n79
*1157 M_B1_A1B0_mult_14_n78
*1158 M_B1_A1B0_mult_14_n76
*1159 M_B1_A1B0_mult_14_n74
*1160 M_B1_A1B0_mult_14_n73
*1161 M_B1_A1B0_mult_14_n72
*1162 M_B1_A1B0_mult_14_n71
*1163 M_B1_A1B0_mult_14_n70
*1164 M_B1_A1B0_mult_14_n69
*1165 M_B1_A1B0_mult_14_n68
*1166 M_B1_A1B0_mult_14_n67
*1167 M_B1_A1B0_mult_14_n66
*1168 M_B1_A1B0_mult_14_n65
*1169 M_B1_A1B0_mult_14_n64
*1170 M_B1_A1B0_mult_14_n63
*1171 M_B1_A1B0_mult_14_n62
*1172 M_B1_A1B0_mult_14_n61
*1173 M_B1_A1B0_mult_14_n60
*1174 M_B1_A1B0_mult_14_n59
*1175 M_B1_A1B0_mult_14_n58
*1176 M_B1_A1B0_mult_14_n57
*1177 M_B1_A1B0_mult_14_n56
*1178 M_B1_A1B0_mult_14_n55
*1179 M_B1_A1B0_mult_14_n54
*1180 M_B1_A1B0_mult_14_n53
*1181 M_B1_A1B0_mult_14_n52
*1182 M_B1_A1B0_mult_14_n51
*1183 M_B1_A1B0_mult_14_n49
*1184 M_B1_A1B0_mult_14_n47
*1185 M_B1_A1B0_mult_14_n46
*1186 M_B1_A1B0_mult_14_n45
*1187 M_B1_A1B0_mult_14_n44
*1188 M_B1_A1B0_mult_14_n42
*1189 M_B1_A1B0_mult_14_n40
*1190 M_B1_A1B0_mult_14_n39
*1191 M_B1_A1B0_mult_14_n38
*1192 M_B1_A1B0_mult_14_n37
*1193 M_B1_A1B0_mult_14_n36
*1194 M_B1_A1B0_mult_14_n34
*1195 M_B1_A1B0_mult_14_n32
*1196 M_B1_A1B0_mult_14_n31
*1197 M_B1_A1B0_mult_14_n30
*1198 M_B1_A1B0_mult_14_n29
*1199 M_B1_A1B0_mult_14_n28
*1200 M_B1_A1B0_mult_14_n26
*1201 M_B1_A1B0_mult_14_n24
*1202 M_B1_A1B0_mult_14_n23
*1203 M_B1_A1B0_mult_14_n21
*1204 M_B1_A1B0_mult_14_n20
*1205 M_B1_A1B0_mult_14_n19
*1206 M_B1_A1B0_mult_14_n18
*1207 M_B1_A1B0_mult_14_n17
*1208 M_B1_A1B0_mult_14_n16
*1209 M_B1_A1B0_mult_14_n15
*1210 M_B1_A1B0_mult_14_n14
*1211 M_B1_A1B0_mult_14_n13
*1212 M_B1_A1B0_mult_14_n12
*1213 M_B1_A1B0_mult_14_n11
*1214 M_B1_A1B0_mult_14_n10
*1215 M_B1_A1B0_mult_14_n9
*1216 M_B1_A1B0_mult_14_n8
*1217 M_B1_A1B0_mult_14_n7
*1218 M_B1_A1B0_mult_14_n6
*1219 M_B1_A1B0_mult_14_n5
*1220 M_B1_A1B0_mult_14_n4
*1221 M_A1B1_P_0_
*1222 M_A1B1_P_1_
*1223 M_A1B1_P_2_
*1224 M_A1B1_P_3_
*1225 M_A1B1_P_4_
*1226 M_A1B1_P_5_
*1227 M_A1B1_P_6_
*1228 M_A1B1_P_7_
*1229 M_A1B1_P_8_
*1230 M_A1B1_P_9_
*1231 M_A1B1_P_10_
*1232 M_A1B1_P_11_
*1233 M_A1B1_mult_14_n556
*1234 M_A1B1_mult_14_n555
*1235 M_A1B1_mult_14_n554
*1236 M_A1B1_mult_14_n553
*1237 M_A1B1_mult_14_n552
*1238 M_A1B1_mult_14_n551
*1239 M_A1B1_mult_14_n550
*1240 M_A1B1_mult_14_n549
*1241 M_A1B1_mult_14_n548
*1242 M_A1B1_mult_14_n547
*1243 M_A1B1_mult_14_n546
*1244 M_A1B1_mult_14_n545
*1245 M_A1B1_mult_14_n544
*1246 M_A1B1_mult_14_n543
*1247 M_A1B1_mult_14_n542
*1248 M_A1B1_mult_14_n541
*1249 M_A1B1_mult_14_n540
*1250 M_A1B1_mult_14_n539
*1251 M_A1B1_mult_14_n538
*1252 M_A1B1_mult_14_n537
*1253 M_A1B1_mult_14_n536
*1254 M_A1B1_mult_14_n535
*1255 M_A1B1_mult_14_n534
*1256 M_A1B1_mult_14_n533
*1257 M_A1B1_mult_14_n532
*1258 M_A1B1_mult_14_n531
*1259 M_A1B1_mult_14_n530
*1260 M_A1B1_mult_14_n529
*1261 M_A1B1_mult_14_n528
*1262 M_A1B1_mult_14_n527
*1263 M_A1B1_mult_14_n524
*1264 M_A1B1_mult_14_n523
*1265 M_A1B1_mult_14_n522
*1266 M_A1B1_mult_14_n519
*1267 M_A1B1_mult_14_n516
*1268 M_A1B1_mult_14_n513
*1269 M_A1B1_mult_14_n510
*1270 M_A1B1_mult_14_n509
*1271 M_A1B1_mult_14_n508
*1272 M_A1B1_mult_14_n507
*1273 M_A1B1_mult_14_n505
*1274 M_A1B1_mult_14_n503
*1275 M_A1B1_mult_14_n502
*1276 M_A1B1_mult_14_n501
*1277 M_A1B1_mult_14_n498
*1278 M_A1B1_mult_14_n497
*1279 M_A1B1_mult_14_n447
*1280 M_A1B1_mult_14_n429
*1281 M_A1B1_mult_14_n428
*1282 M_A1B1_mult_14_n427
*1283 M_A1B1_mult_14_n426
*1284 M_A1B1_mult_14_n425
*1285 M_A1B1_mult_14_n424
*1286 M_A1B1_mult_14_n422
*1287 M_A1B1_mult_14_n421
*1288 M_A1B1_mult_14_n420
*1289 M_A1B1_mult_14_n419
*1290 M_A1B1_mult_14_n418
*1291 M_A1B1_mult_14_n417
*1292 M_A1B1_mult_14_n416
*1293 M_A1B1_mult_14_n415
*1294 M_A1B1_mult_14_n414
*1295 M_A1B1_mult_14_n413
*1296 M_A1B1_mult_14_n411
*1297 M_A1B1_mult_14_n410
*1298 M_A1B1_mult_14_n409
*1299 M_A1B1_mult_14_n408
*1300 M_A1B1_mult_14_n407
*1301 M_A1B1_mult_14_n394
*1302 M_A1B1_mult_14_n393
*1303 M_A1B1_mult_14_n392
*1304 M_A1B1_mult_14_n391
*1305 M_A1B1_mult_14_n390
*1306 M_A1B1_mult_14_n389
*1307 M_A1B1_mult_14_n388
*1308 M_A1B1_mult_14_n387
*1309 M_A1B1_mult_14_n386
*1310 M_A1B1_mult_14_n385
*1311 M_A1B1_mult_14_n384
*1312 M_A1B1_mult_14_n383
*1313 M_A1B1_mult_14_n382
*1314 M_A1B1_mult_14_n381
*1315 M_A1B1_mult_14_n380
*1316 M_A1B1_mult_14_n379
*1317 M_A1B1_mult_14_n378
*1318 M_A1B1_mult_14_n377
*1319 M_A1B1_mult_14_n376
*1320 M_A1B1_mult_14_n375
*1321 M_A1B1_mult_14_n374
*1322 M_A1B1_mult_14_n373
*1323 M_A1B1_mult_14_n372
*1324 M_A1B1_mult_14_n371
*1325 M_A1B1_mult_14_n370
*1326 M_A1B1_mult_14_n369
*1327 M_A1B1_mult_14_n368
*1328 M_A1B1_mult_14_n367
*1329 M_A1B1_mult_14_n366
*1330 M_A1B1_mult_14_n365
*1331 M_A1B1_mult_14_n364
*1332 M_A1B1_mult_14_n363
*1333 M_A1B1_mult_14_n362
*1334 M_A1B1_mult_14_n361
*1335 M_A1B1_mult_14_n360
*1336 M_A1B1_mult_14_n359
*1337 M_A1B1_mult_14_n358
*1338 M_A1B1_mult_14_n357
*1339 M_A1B1_mult_14_n356
*1340 M_A1B1_mult_14_n355
*1341 M_A1B1_mult_14_n354
*1342 M_A1B1_mult_14_n353
*1343 M_A1B1_mult_14_n352
*1344 M_A1B1_mult_14_n351
*1345 M_A1B1_mult_14_n350
*1346 M_A1B1_mult_14_n349
*1347 M_A1B1_mult_14_n348
*1348 M_A1B1_mult_14_n347
*1349 M_A1B1_mult_14_n346
*1350 M_A1B1_mult_14_n345
*1351 M_A1B1_mult_14_n344
*1352 M_A1B1_mult_14_n343
*1353 M_A1B1_mult_14_n342
*1354 M_A1B1_mult_14_n341
*1355 M_A1B1_mult_14_n340
*1356 M_A1B1_mult_14_n339
*1357 M_A1B1_mult_14_n338
*1358 M_A1B1_mult_14_n337
*1359 M_A1B1_mult_14_n336
*1360 M_A1B1_mult_14_n335
*1361 M_A1B1_mult_14_n334
*1362 M_A1B1_mult_14_n332
*1363 M_A1B1_mult_14_n331
*1364 M_A1B1_mult_14_n330
*1365 M_A1B1_mult_14_n329
*1366 M_A1B1_mult_14_n328
*1367 M_A1B1_mult_14_n327
*1368 M_A1B1_mult_14_n326
*1369 M_A1B1_mult_14_n325
*1370 M_A1B1_mult_14_n324
*1371 M_A1B1_mult_14_n323
*1372 M_A1B1_mult_14_n322
*1373 M_A1B1_mult_14_n321
*1374 M_A1B1_mult_14_n320
*1375 M_A1B1_mult_14_n319
*1376 M_A1B1_mult_14_n318
*1377 M_A1B1_mult_14_n317
*1378 M_A1B1_mult_14_n316
*1379 M_A1B1_mult_14_n315
*1380 M_A1B1_mult_14_n314
*1381 M_A1B1_mult_14_n313
*1382 M_A1B1_mult_14_n312
*1383 M_A1B1_mult_14_n311
*1384 M_A1B1_mult_14_n310
*1385 M_A1B1_mult_14_n309
*1386 M_A1B1_mult_14_n308
*1387 M_A1B1_mult_14_n307
*1388 M_A1B1_mult_14_n306
*1389 M_A1B1_mult_14_n305
*1390 M_A1B1_mult_14_n304
*1391 M_A1B1_mult_14_n303